Program Version,EnergyPlus, Version 9.6.0-ec13cca9f6, YMD=2021.12.27 23:49
! This file shows details about the branches, nodes, and other
! elements of the flow connections.
! This file is intended for use in "debugging" potential problems
! that may also be detected by the program, but may be more easily
! identified by "eye".
! This file is also intended to support software which draws a
! schematic diagram of the HVAC system.
! ===============================================================
! #Nodes,<Number of Unique Nodes>
 #Nodes,57
! <Node>,<NodeNumber>,<Node Name>,<Node Fluid Type>,<# Times Node Referenced After Definition>
 Node,1,NODE 2,Air,3
 Node,2,NODE 6,Air,3
 Node,3,NODE 1,Air,3
 Node,4,NODE 5,Air,3
 Node,5,STORY GROUND BLENDED SPACE TYPE SERVICE WATER LOOP SUPPLY INLET NODE,Water,2
 Node,6,STORY GROUND BLENDED SPACE TYPE SERVICE WATER LOOP WATER MAINS PRESSURE DRIVEN OUTLET WATER NODE,Water,1
 Node,7,PIPE ADIABATIC 1 INLET WATER NODE,Water,1
 Node,8,PIPE ADIABATIC 1 OUTLET WATER NODE,Water,1
 Node,9,NODE 7,Water,2
 Node,10,NODE 8,Water,2
 Node,11,PIPE ADIABATIC 3 INLET WATER NODE,Water,1
 Node,12,STORY GROUND BLENDED SPACE TYPE SERVICE WATER LOOP SUPPLY OUTLET NODE,Water,4
 Node,13,STORY GROUND BLENDED SPACE TYPE SERVICE WATER LOOP DEMAND INLET NODE,Water,2
 Node,14,STORY GROUND BLENDED SPACE TYPE SERVICE WATER LOOP PIPE 320.0FT OUTLET WATER NODE,Water,1
 Node,15,PIPE ADIABATIC 2 INLET WATER NODE,Water,1
 Node,16,PIPE ADIABATIC 2 OUTLET WATER NODE,Water,1
 Node,17,STORY GROUND BLENDED SPACE TYPE 16 UNITS WUC 0.93GPM AT 110F INLET WATER NODE,Water,1
 Node,18,STORY GROUND BLENDED SPACE TYPE 16 UNITS WUC 0.93GPM AT 110F OUTLET WATER NODE,Water,1
 Node,19,STORY GROUND BLENDED SPACE TYPE SERVICE WATER LOOP DEMAND BYPASS PIPE INLET NODE,Water,1
 Node,20,STORY GROUND BLENDED SPACE TYPE SERVICE WATER LOOP DEMAND BYPASS PIPE OUTLET NODE,Water,1
 Node,21,PIPE ADIABATIC 4 INLET WATER NODE,Water,1
 Node,22,STORY GROUND BLENDED SPACE TYPE SERVICE WATER LOOP DEMAND OUTLET NODE,Water,2
 Node,23,STORY TOP BLENDED SPACE TYPE SERVICE WATER LOOP SUPPLY INLET NODE,Water,2
 Node,24,STORY TOP BLENDED SPACE TYPE SERVICE WATER LOOP WATER MAINS PRESSURE DRIVEN OUTLET WATER NODE,Water,1
 Node,25,PIPE ADIABATIC 5 INLET WATER NODE,Water,1
 Node,26,PIPE ADIABATIC 5 OUTLET WATER NODE,Water,1
 Node,27,NODE 3,Water,2
 Node,28,NODE 4,Water,2
 Node,29,PIPE ADIABATIC 7 INLET WATER NODE,Water,1
 Node,30,STORY TOP BLENDED SPACE TYPE SERVICE WATER LOOP SUPPLY OUTLET NODE,Water,4
 Node,31,STORY TOP BLENDED SPACE TYPE SERVICE WATER LOOP DEMAND INLET NODE,Water,2
 Node,32,STORY TOP BLENDED SPACE TYPE SERVICE WATER LOOP PIPE 320.0FT OUTLET WATER NODE,Water,1
 Node,33,PIPE ADIABATIC 6 INLET WATER NODE,Water,1
 Node,34,PIPE ADIABATIC 6 OUTLET WATER NODE,Water,1
 Node,35,STORY TOP BLENDED SPACE TYPE 16 UNITS WUC 0.93GPM AT 110F INLET WATER NODE,Water,1
 Node,36,STORY TOP BLENDED SPACE TYPE 16 UNITS WUC 0.93GPM AT 110F OUTLET WATER NODE,Water,1
 Node,37,STORY TOP BLENDED SPACE TYPE SERVICE WATER LOOP DEMAND BYPASS PIPE INLET NODE,Water,1
 Node,38,STORY TOP BLENDED SPACE TYPE SERVICE WATER LOOP DEMAND BYPASS PIPE OUTLET NODE,Water,1
 Node,39,PIPE ADIABATIC 8 INLET WATER NODE,Water,1
 Node,40,STORY TOP BLENDED SPACE TYPE SERVICE WATER LOOP DEMAND OUTLET NODE,Water,2
 Node,41,BUILDING STORY 1 THERMALZONE ZONE AIR NODE,Air,0
 Node,42,BUILDING STORY 1 THERMALZONE 1 ZONE AIR NODE,Air,0
 Node,43,BUILDING STORY 1 THERMALZONE 2 ZONE AIR NODE,Air,0
 Node,44,BUILDING STORY 1 THERMALZONE 3 ZONE AIR NODE,Air,0
 Node,45,BUILDING STORY 1 THERMALZONE 4 ZONE AIR NODE,Air,0
 Node,46,BUILDING STORY 2 THERMALZONE ZONE AIR NODE,Air,0
 Node,47,BUILDING STORY 2 THERMALZONE 1 ZONE AIR NODE,Air,0
 Node,48,BUILDING STORY 2 THERMALZONE 2 ZONE AIR NODE,Air,0
 Node,49,BUILDING STORY 2 THERMALZONE 3 ZONE AIR NODE,Air,0
 Node,50,BUILDING STORY 2 THERMALZONE 4 ZONE AIR NODE,Air,0
 Node,51,800GAL HEAT PUMP WATER HEATER - 320KBTU/HR_TYPE_B TANK OUTLET - CONDENSER INLET,Water,2
 Node,52,800GAL HEAT PUMP WATER HEATER - 320KBTU/HR_TYPE_B CONDENSER OUTLET - TANK INLET,Water,2
 Node,53,800GAL HEAT PUMP WATER HEATER - 320KBTU/HR_TYPE_B EVAP OUTLET - FAN INLET,Air,1
 Node,54,MODEL OUTDOOR AIR NODE,Air,0
 Node,55,800GAL HEAT PUMP WATER HEATER - 320KBTU/HR_TYPE_B 1 EVAP OUTLET - FAN INLET,Air,1
 Node,56,800GAL HEAT PUMP WATER HEATER - 320KBTU/HR_TYPE_B 1 TANK OUTLET - CONDENSER INLET,Water,2
 Node,57,800GAL HEAT PUMP WATER HEATER - 320KBTU/HR_TYPE_B 1 CONDENSER OUTLET - TANK INLET,Water,2
! ===============================================================
! Suspicious nodes have 0 references.  It is normal for some nodes, however.
! Listing nodes with 0 references (culled from previous list):
! <Suspicious Node>,<NodeNumber>,<Node Name>,<Node Fluid Type>,<# Times Node Referenced After Definition>
 Suspicious Node,41,BUILDING STORY 1 THERMALZONE ZONE AIR NODE,Air,0
 Suspicious Node,42,BUILDING STORY 1 THERMALZONE 1 ZONE AIR NODE,Air,0
 Suspicious Node,43,BUILDING STORY 1 THERMALZONE 2 ZONE AIR NODE,Air,0
 Suspicious Node,44,BUILDING STORY 1 THERMALZONE 3 ZONE AIR NODE,Air,0
 Suspicious Node,45,BUILDING STORY 1 THERMALZONE 4 ZONE AIR NODE,Air,0
 Suspicious Node,46,BUILDING STORY 2 THERMALZONE ZONE AIR NODE,Air,0
 Suspicious Node,47,BUILDING STORY 2 THERMALZONE 1 ZONE AIR NODE,Air,0
 Suspicious Node,48,BUILDING STORY 2 THERMALZONE 2 ZONE AIR NODE,Air,0
 Suspicious Node,49,BUILDING STORY 2 THERMALZONE 3 ZONE AIR NODE,Air,0
 Suspicious Node,50,BUILDING STORY 2 THERMALZONE 4 ZONE AIR NODE,Air,0
 Suspicious Node,54,MODEL OUTDOOR AIR NODE,Air,0
! ===============================================================
! <#Branch Lists>,<Number of Branch Lists>
 #Branch Lists,4
! <Branch List>,<Branch List Count>,<Branch List Name>,<Loop Name>,<Loop Type>,<Number of Branches>
! <Branch>,<Branch Count>,<Branch Name>,<Loop Name>,<Loop Type>,<Branch Inlet Node Name>,<Branch Outlet Node Name>
 Branch List,1,STORY GROUND BLENDED SPACE TYPE SERVICE WATER LOOP SUPPLY BRANCHES,STORY GROUND BLENDED SPACE TYPE SERVICE WATER LOOP,Plant Supply,4
   Branch,1,STORY GROUND BLENDED SPACE TYPE SERVICE WATER LOOP SUPPLY INLET BRANCH,STORY GROUND BLENDED SPACE TYPE SERVICE WATER LOOP,Plant Supply,STORY GROUND BLENDED SPACE TYPE SERVICE WATER LOOP SUPPLY INLET NODE,STORY GROUND BLENDED SPACE TYPE SERVICE WATER LOOP WATER MAINS PRESSURE DRIVEN OUTLET WATER NODE
   Branch,2,STORY GROUND BLENDED SPACE TYPE SERVICE WATER LOOP SUPPLY BRANCH 1,STORY GROUND BLENDED SPACE TYPE SERVICE WATER LOOP,Plant Supply,PIPE ADIABATIC 1 INLET WATER NODE,PIPE ADIABATIC 1 OUTLET WATER NODE
   Branch,3,STORY GROUND BLENDED SPACE TYPE SERVICE WATER LOOP SUPPLY BRANCH 2,STORY GROUND BLENDED SPACE TYPE SERVICE WATER LOOP,Plant Supply,NODE 7,NODE 8
   Branch,4,STORY GROUND BLENDED SPACE TYPE SERVICE WATER LOOP SUPPLY OUTLET BRANCH,STORY GROUND BLENDED SPACE TYPE SERVICE WATER LOOP,Plant Supply,PIPE ADIABATIC 3 INLET WATER NODE,STORY GROUND BLENDED SPACE TYPE SERVICE WATER LOOP SUPPLY OUTLET NODE
 Branch List,2,STORY GROUND BLENDED SPACE TYPE SERVICE WATER LOOP DEMAND BRANCHES,STORY GROUND BLENDED SPACE TYPE SERVICE WATER LOOP,Plant Demand,5
   Branch,1,STORY GROUND BLENDED SPACE TYPE SERVICE WATER LOOP DEMAND INLET BRANCH,STORY GROUND BLENDED SPACE TYPE SERVICE WATER LOOP,Plant Demand,STORY GROUND BLENDED SPACE TYPE SERVICE WATER LOOP DEMAND INLET NODE,STORY GROUND BLENDED SPACE TYPE SERVICE WATER LOOP PIPE 320.0FT OUTLET WATER NODE
   Branch,2,STORY GROUND BLENDED SPACE TYPE SERVICE WATER LOOP DEMAND BRANCH 1,STORY GROUND BLENDED SPACE TYPE SERVICE WATER LOOP,Plant Demand,PIPE ADIABATIC 2 INLET WATER NODE,PIPE ADIABATIC 2 OUTLET WATER NODE
   Branch,3,STORY GROUND BLENDED SPACE TYPE SERVICE WATER LOOP DEMAND BRANCH 2,STORY GROUND BLENDED SPACE TYPE SERVICE WATER LOOP,Plant Demand,STORY GROUND BLENDED SPACE TYPE 16 UNITS WUC 0.93GPM AT 110F INLET WATER NODE,STORY GROUND BLENDED SPACE TYPE 16 UNITS WUC 0.93GPM AT 110F OUTLET WATER NODE
   Branch,4,STORY GROUND BLENDED SPACE TYPE SERVICE WATER LOOP DEMAND BYPASS BRANCH,STORY GROUND BLENDED SPACE TYPE SERVICE WATER LOOP,Plant Demand,STORY GROUND BLENDED SPACE TYPE SERVICE WATER LOOP DEMAND BYPASS PIPE INLET NODE,STORY GROUND BLENDED SPACE TYPE SERVICE WATER LOOP DEMAND BYPASS PIPE OUTLET NODE
   Branch,5,STORY GROUND BLENDED SPACE TYPE SERVICE WATER LOOP DEMAND OUTLET BRANCH,STORY GROUND BLENDED SPACE TYPE SERVICE WATER LOOP,Plant Demand,PIPE ADIABATIC 4 INLET WATER NODE,STORY GROUND BLENDED SPACE TYPE SERVICE WATER LOOP DEMAND OUTLET NODE
 Branch List,3,STORY TOP BLENDED SPACE TYPE SERVICE WATER LOOP SUPPLY BRANCHES,STORY TOP BLENDED SPACE TYPE SERVICE WATER LOOP,Plant Supply,4
   Branch,1,STORY TOP BLENDED SPACE TYPE SERVICE WATER LOOP SUPPLY INLET BRANCH,STORY TOP BLENDED SPACE TYPE SERVICE WATER LOOP,Plant Supply,STORY TOP BLENDED SPACE TYPE SERVICE WATER LOOP SUPPLY INLET NODE,STORY TOP BLENDED SPACE TYPE SERVICE WATER LOOP WATER MAINS PRESSURE DRIVEN OUTLET WATER NODE
   Branch,2,STORY TOP BLENDED SPACE TYPE SERVICE WATER LOOP SUPPLY BRANCH 1,STORY TOP BLENDED SPACE TYPE SERVICE WATER LOOP,Plant Supply,PIPE ADIABATIC 5 INLET WATER NODE,PIPE ADIABATIC 5 OUTLET WATER NODE
   Branch,3,STORY TOP BLENDED SPACE TYPE SERVICE WATER LOOP SUPPLY BRANCH 2,STORY TOP BLENDED SPACE TYPE SERVICE WATER LOOP,Plant Supply,NODE 3,NODE 4
   Branch,4,STORY TOP BLENDED SPACE TYPE SERVICE WATER LOOP SUPPLY OUTLET BRANCH,STORY TOP BLENDED SPACE TYPE SERVICE WATER LOOP,Plant Supply,PIPE ADIABATIC 7 INLET WATER NODE,STORY TOP BLENDED SPACE TYPE SERVICE WATER LOOP SUPPLY OUTLET NODE
 Branch List,4,STORY TOP BLENDED SPACE TYPE SERVICE WATER LOOP DEMAND BRANCHES,STORY TOP BLENDED SPACE TYPE SERVICE WATER LOOP,Plant Demand,5
   Branch,1,STORY TOP BLENDED SPACE TYPE SERVICE WATER LOOP DEMAND INLET BRANCH,STORY TOP BLENDED SPACE TYPE SERVICE WATER LOOP,Plant Demand,STORY TOP BLENDED SPACE TYPE SERVICE WATER LOOP DEMAND INLET NODE,STORY TOP BLENDED SPACE TYPE SERVICE WATER LOOP PIPE 320.0FT OUTLET WATER NODE
   Branch,2,STORY TOP BLENDED SPACE TYPE SERVICE WATER LOOP DEMAND BRANCH 1,STORY TOP BLENDED SPACE TYPE SERVICE WATER LOOP,Plant Demand,PIPE ADIABATIC 6 INLET WATER NODE,PIPE ADIABATIC 6 OUTLET WATER NODE
   Branch,3,STORY TOP BLENDED SPACE TYPE SERVICE WATER LOOP DEMAND BRANCH 2,STORY TOP BLENDED SPACE TYPE SERVICE WATER LOOP,Plant Demand,STORY TOP BLENDED SPACE TYPE 16 UNITS WUC 0.93GPM AT 110F INLET WATER NODE,STORY TOP BLENDED SPACE TYPE 16 UNITS WUC 0.93GPM AT 110F OUTLET WATER NODE
   Branch,4,STORY TOP BLENDED SPACE TYPE SERVICE WATER LOOP DEMAND BYPASS BRANCH,STORY TOP BLENDED SPACE TYPE SERVICE WATER LOOP,Plant Demand,STORY TOP BLENDED SPACE TYPE SERVICE WATER LOOP DEMAND BYPASS PIPE INLET NODE,STORY TOP BLENDED SPACE TYPE SERVICE WATER LOOP DEMAND BYPASS PIPE OUTLET NODE
   Branch,5,STORY TOP BLENDED SPACE TYPE SERVICE WATER LOOP DEMAND OUTLET BRANCH,STORY TOP BLENDED SPACE TYPE SERVICE WATER LOOP,Plant Demand,PIPE ADIABATIC 8 INLET WATER NODE,STORY TOP BLENDED SPACE TYPE SERVICE WATER LOOP DEMAND OUTLET NODE
! ===============================================================
! <#Supply Air Paths>,<Number of Supply Air Paths>
 #Supply Air Paths,0
! <Supply Air Path>,<Supply Air Path Count>,<Supply Air Path Name>,<AirLoopHVAC Name>
! <#Components on Supply Air Path>,<Number of Components>
! <Supply Air Path Component>,<Component Count>,<Component Type>,<Component Name>,<AirLoopHVAC Name>
! <#Outlet Nodes on Supply Air Path Component>,<Number of Nodes>
! <Supply Air Path Component Nodes>,<Node Count>,<Component Type>,<Component Name>,<Inlet Node Name>,<Outlet Node Name>,<AirLoopHVAC Name>
! ===============================================================
! <#Return Air Paths>,<Number of Return Air Paths>
 #Return Air Paths,0
! <Return Air Path>,<Return Air Path Count>,<Return Air Path Name>,<AirLoopHVAC Name>
! <#Components on Return Air Path>,<Number of Components>
! <Return Air Path Component>,<Component Count>,<Component Type>,<Component Name>,<AirLoopHVAC Name>
! <#Inlet Nodes on Return Air Path Component>,<Number of Nodes>
! <Return Air Path Component Nodes>,<Node Count>,<Component Type>,<Component Name>,<Inlet Node Name>,<Outlet Node Name>,<AirLoopHVAC Name>
! ===============================================================
! #Outdoor Air Nodes,<Number of Outdoor Air Nodes>
 #Outdoor Air Nodes,1
! <Outdoor Air Node>,<NodeNumber>,<Node Name>
 Outdoor Air Node,54,MODEL OUTDOOR AIR NODE
! ===============================================================
! <#Component Sets>,<Number of Component Sets>
 #Component Sets,26
! <Component Set>,<Component Set Count>,<Parent Object Type>,<Parent Object Name>,<Component Type>,<Component Name>,<Inlet Node ID>,<Outlet Node ID>,<Description>
 Component Set,1,BRANCH,STORY GROUND BLENDED SPACE TYPE SERVICE WATER LOOP SUPPLY INLET BRANCH,PUMP:VARIABLESPEED,STORY GROUND BLENDED SPACE TYPE SERVICE WATER LOOP WATER MAINS PRESSURE DRIVEN,STORY GROUND BLENDED SPACE TYPE SERVICE WATER LOOP SUPPLY INLET NODE,STORY GROUND BLENDED SPACE TYPE SERVICE WATER LOOP WATER MAINS PRESSURE DRIVEN OUTLET WATER NODE,Water Nodes
 Component Set,2,BRANCH,STORY GROUND BLENDED SPACE TYPE SERVICE WATER LOOP SUPPLY BRANCH 1,PIPE:ADIABATIC,PIPE ADIABATIC 1,PIPE ADIABATIC 1 INLET WATER NODE,PIPE ADIABATIC 1 OUTLET WATER NODE,Pipe Nodes
 Component Set,3,BRANCH,STORY GROUND BLENDED SPACE TYPE SERVICE WATER LOOP SUPPLY BRANCH 2,WATERHEATER:HEATPUMP:PUMPEDCONDENSER,800GAL HEAT PUMP WATER HEATER - 320KBTU/HR_TYPE_B 1,NODE 7,NODE 8,Water Nodes
 Component Set,4,BRANCH,STORY GROUND BLENDED SPACE TYPE SERVICE WATER LOOP SUPPLY OUTLET BRANCH,PIPE:ADIABATIC,PIPE ADIABATIC 3,PIPE ADIABATIC 3 INLET WATER NODE,STORY GROUND BLENDED SPACE TYPE SERVICE WATER LOOP SUPPLY OUTLET NODE,Pipe Nodes
 Component Set,5,BRANCH,STORY GROUND BLENDED SPACE TYPE SERVICE WATER LOOP DEMAND INLET BRANCH,PIPE:INDOOR,STORY GROUND BLENDED SPACE TYPE SERVICE WATER LOOP PIPE 320.0FT,STORY GROUND BLENDED SPACE TYPE SERVICE WATER LOOP DEMAND INLET NODE,STORY GROUND BLENDED SPACE TYPE SERVICE WATER LOOP PIPE 320.0FT OUTLET WATER NODE,Pipe Nodes
 Component Set,6,BRANCH,STORY GROUND BLENDED SPACE TYPE SERVICE WATER LOOP DEMAND BRANCH 1,PIPE:ADIABATIC,PIPE ADIABATIC 2,PIPE ADIABATIC 2 INLET WATER NODE,PIPE ADIABATIC 2 OUTLET WATER NODE,Pipe Nodes
 Component Set,7,BRANCH,STORY GROUND BLENDED SPACE TYPE SERVICE WATER LOOP DEMAND BRANCH 2,WATERUSE:CONNECTIONS,STORY GROUND BLENDED SPACE TYPE 16 UNITS WUC 0.93GPM AT 110F,STORY GROUND BLENDED SPACE TYPE 16 UNITS WUC 0.93GPM AT 110F INLET WATER NODE,STORY GROUND BLENDED SPACE TYPE 16 UNITS WUC 0.93GPM AT 110F OUTLET WATER NODE,DHW Nodes
 Component Set,8,BRANCH,STORY GROUND BLENDED SPACE TYPE SERVICE WATER LOOP DEMAND BYPASS BRANCH,PIPE:ADIABATIC,STORY GROUND BLENDED SPACE TYPE SERVICE WATER LOOP DEMAND BYPASS PIPE,STORY GROUND BLENDED SPACE TYPE SERVICE WATER LOOP DEMAND BYPASS PIPE INLET NODE,STORY GROUND BLENDED SPACE TYPE SERVICE WATER LOOP DEMAND BYPASS PIPE OUTLET NODE,Pipe Nodes
 Component Set,9,BRANCH,STORY GROUND BLENDED SPACE TYPE SERVICE WATER LOOP DEMAND OUTLET BRANCH,PIPE:ADIABATIC,PIPE ADIABATIC 4,PIPE ADIABATIC 4 INLET WATER NODE,STORY GROUND BLENDED SPACE TYPE SERVICE WATER LOOP DEMAND OUTLET NODE,Pipe Nodes
 Component Set,10,BRANCH,STORY TOP BLENDED SPACE TYPE SERVICE WATER LOOP SUPPLY INLET BRANCH,PUMP:VARIABLESPEED,STORY TOP BLENDED SPACE TYPE SERVICE WATER LOOP WATER MAINS PRESSURE DRIVEN,STORY TOP BLENDED SPACE TYPE SERVICE WATER LOOP SUPPLY INLET NODE,STORY TOP BLENDED SPACE TYPE SERVICE WATER LOOP WATER MAINS PRESSURE DRIVEN OUTLET WATER NODE,Water Nodes
 Component Set,11,BRANCH,STORY TOP BLENDED SPACE TYPE SERVICE WATER LOOP SUPPLY BRANCH 1,PIPE:ADIABATIC,PIPE ADIABATIC 5,PIPE ADIABATIC 5 INLET WATER NODE,PIPE ADIABATIC 5 OUTLET WATER NODE,Pipe Nodes
 Component Set,12,BRANCH,STORY TOP BLENDED SPACE TYPE SERVICE WATER LOOP SUPPLY BRANCH 2,WATERHEATER:HEATPUMP:PUMPEDCONDENSER,800GAL HEAT PUMP WATER HEATER - 320KBTU/HR_TYPE_B,NODE 3,NODE 4,Water Nodes
 Component Set,13,BRANCH,STORY TOP BLENDED SPACE TYPE SERVICE WATER LOOP SUPPLY OUTLET BRANCH,PIPE:ADIABATIC,PIPE ADIABATIC 7,PIPE ADIABATIC 7 INLET WATER NODE,STORY TOP BLENDED SPACE TYPE SERVICE WATER LOOP SUPPLY OUTLET NODE,Pipe Nodes
 Component Set,14,BRANCH,STORY TOP BLENDED SPACE TYPE SERVICE WATER LOOP DEMAND INLET BRANCH,PIPE:INDOOR,STORY TOP BLENDED SPACE TYPE SERVICE WATER LOOP PIPE 320.0FT,STORY TOP BLENDED SPACE TYPE SERVICE WATER LOOP DEMAND INLET NODE,STORY TOP BLENDED SPACE TYPE SERVICE WATER LOOP PIPE 320.0FT OUTLET WATER NODE,Pipe Nodes
 Component Set,15,BRANCH,STORY TOP BLENDED SPACE TYPE SERVICE WATER LOOP DEMAND BRANCH 1,PIPE:ADIABATIC,PIPE ADIABATIC 6,PIPE ADIABATIC 6 INLET WATER NODE,PIPE ADIABATIC 6 OUTLET WATER NODE,Pipe Nodes
 Component Set,16,BRANCH,STORY TOP BLENDED SPACE TYPE SERVICE WATER LOOP DEMAND BRANCH 2,WATERUSE:CONNECTIONS,STORY TOP BLENDED SPACE TYPE 16 UNITS WUC 0.93GPM AT 110F,STORY TOP BLENDED SPACE TYPE 16 UNITS WUC 0.93GPM AT 110F INLET WATER NODE,STORY TOP BLENDED SPACE TYPE 16 UNITS WUC 0.93GPM AT 110F OUTLET WATER NODE,DHW Nodes
 Component Set,17,BRANCH,STORY TOP BLENDED SPACE TYPE SERVICE WATER LOOP DEMAND BYPASS BRANCH,PIPE:ADIABATIC,STORY TOP BLENDED SPACE TYPE SERVICE WATER LOOP DEMAND BYPASS PIPE,STORY TOP BLENDED SPACE TYPE SERVICE WATER LOOP DEMAND BYPASS PIPE INLET NODE,STORY TOP BLENDED SPACE TYPE SERVICE WATER LOOP DEMAND BYPASS PIPE OUTLET NODE,Pipe Nodes
 Component Set,18,BRANCH,STORY TOP BLENDED SPACE TYPE SERVICE WATER LOOP DEMAND OUTLET BRANCH,PIPE:ADIABATIC,PIPE ADIABATIC 8,PIPE ADIABATIC 8 INLET WATER NODE,STORY TOP BLENDED SPACE TYPE SERVICE WATER LOOP DEMAND OUTLET NODE,Pipe Nodes
 Component Set,19,WATERHEATER:HEATPUMP:PUMPEDCONDENSER,800GAL HEAT PUMP WATER HEATER - 320KBTU/HR_TYPE_B,COIL:WATERHEATING:AIRTOWATERHEATPUMP:PUMPED,800GAL HEAT PUMP WATER HEATER - 320KBTU/HR COIL,NODE 1,800GAL HEAT PUMP WATER HEATER - 320KBTU/HR_TYPE_B EVAP OUTLET - FAN INLET,Air Nodes
 Component Set,20,WATERHEATER:HEATPUMP:PUMPEDCONDENSER,800GAL HEAT PUMP WATER HEATER - 320KBTU/HR_TYPE_B,COIL:WATERHEATING:AIRTOWATERHEATPUMP:PUMPED,800GAL HEAT PUMP WATER HEATER - 320KBTU/HR COIL,800GAL HEAT PUMP WATER HEATER - 320KBTU/HR_TYPE_B TANK OUTLET - CONDENSER INLET,800GAL HEAT PUMP WATER HEATER - 320KBTU/HR_TYPE_B CONDENSER OUTLET - TANK INLET,HPWH To Coil
 Component Set,21,WATERHEATER:HEATPUMP:PUMPEDCONDENSER,800GAL HEAT PUMP WATER HEATER - 320KBTU/HR_TYPE_B 1,COIL:WATERHEATING:AIRTOWATERHEATPUMP:PUMPED,800GAL HEAT PUMP WATER HEATER - 320KBTU/HR COIL 1,NODE 5,800GAL HEAT PUMP WATER HEATER - 320KBTU/HR_TYPE_B 1 EVAP OUTLET - FAN INLET,Air Nodes
 Component Set,22,WATERHEATER:HEATPUMP:PUMPEDCONDENSER,800GAL HEAT PUMP WATER HEATER - 320KBTU/HR_TYPE_B 1,COIL:WATERHEATING:AIRTOWATERHEATPUMP:PUMPED,800GAL HEAT PUMP WATER HEATER - 320KBTU/HR COIL 1,800GAL HEAT PUMP WATER HEATER - 320KBTU/HR_TYPE_B 1 TANK OUTLET - CONDENSER INLET,800GAL HEAT PUMP WATER HEATER - 320KBTU/HR_TYPE_B 1 CONDENSER OUTLET - TANK INLET,HPWH To Coil
 Component Set,23,WATERHEATER:HEATPUMP:PUMPEDCONDENSER,800GAL HEAT PUMP WATER HEATER - 320KBTU/HR_TYPE_B,FAN:ONOFF,800GAL HEAT PUMP WATER HEATER - 320KBTU/HR FAN,800GAL HEAT PUMP WATER HEATER - 320KBTU/HR_TYPE_B EVAP OUTLET - FAN INLET,NODE 2,Air Nodes
 Component Set,24,WATERHEATER:HEATPUMP:PUMPEDCONDENSER,800GAL HEAT PUMP WATER HEATER - 320KBTU/HR_TYPE_B 1,FAN:ONOFF,800GAL HEAT PUMP WATER HEATER - 320KBTU/HR FAN 1,800GAL HEAT PUMP WATER HEATER - 320KBTU/HR_TYPE_B 1 EVAP OUTLET - FAN INLET,NODE 6,Air Nodes
 Component Set,25,WATERHEATER:HEATPUMP:PUMPEDCONDENSER,800GAL HEAT PUMP WATER HEATER - 320KBTU/HR_TYPE_B,WATERHEATER:MIXED,800GAL HEAT PUMP WATER HEATER - 320KBTU/HR TANK,800GAL HEAT PUMP WATER HEATER - 320KBTU/HR_TYPE_B CONDENSER OUTLET - TANK INLET,800GAL HEAT PUMP WATER HEATER - 320KBTU/HR_TYPE_B TANK OUTLET - CONDENSER INLET,HPWH To Tank
 Component Set,26,WATERHEATER:HEATPUMP:PUMPEDCONDENSER,800GAL HEAT PUMP WATER HEATER - 320KBTU/HR_TYPE_B 1,WATERHEATER:MIXED,800GAL HEAT PUMP WATER HEATER - 320KBTU/HR TANK 1,800GAL HEAT PUMP WATER HEATER - 320KBTU/HR_TYPE_B 1 CONDENSER OUTLET - TANK INLET,800GAL HEAT PUMP WATER HEATER - 320KBTU/HR_TYPE_B 1 TANK OUTLET - CONDENSER INLET,HPWH To Tank
! ===============================================================
! <# Plant Loops>,<Number of Plant Loops>
 #Plant Loops,2
! <Plant Loop>,<Plant Loop Name>,<Loop Type>,<Inlet Node Name>,<Outlet Node Name>,<Branch List>,<Connector List>
! <Plant Loop Connector>,<Connector Type>,<Connector Name>,<Loop Name>,<Loop Type>,<Number of Inlets/Outlets>
! <Plant Loop Connector Branches>,<Connector Node Count>,<Connector Type>,<Connector Name>,<Inlet Branch>,<Outlet Branch>,<Loop Name>,<Loop Type>
! <Plant Loop Connector Nodes>,<Connector Node Count>,<Connector Type>,<Connector Name>,<Inlet Node>,<Outlet Node>,<Loop Name>,<Loop Type>
! <Plant Loop Supply Connection>,<Plant Loop Name>,<Supply Side Outlet Node Name>,<Demand Side Inlet Node Name>
! <Plant Loop Return Connection>,<Plant Loop Name>,<Demand Side Outlet Node Name>,<Supply Side Inlet Node Name>
 Plant Loop,STORY GROUND BLENDED SPACE TYPE SERVICE WATER LOOP,Demand,STORY GROUND BLENDED SPACE TYPE SERVICE WATER LOOP DEMAND INLET NODE,STORY GROUND BLENDED SPACE TYPE SERVICE WATER LOOP DEMAND OUTLET NODE,STORY GROUND BLENDED SPACE TYPE SERVICE WATER LOOP DEMAND BRANCHES,STORY GROUND BLENDED SPACE TYPE SERVICE WATER LOOP DEMAND CONNECTOR LIST
   Plant Loop Connector,Splitter,STORY GROUND BLENDED SPACE TYPE SERVICE WATER LOOP DEMAND SPLITTER,STORY GROUND BLENDED SPACE TYPE SERVICE WATER LOOP,Demand,3
     Plant Loop Connector Branches,1,Splitter,STORY GROUND BLENDED SPACE TYPE SERVICE WATER LOOP DEMAND SPLITTER,STORY GROUND BLENDED SPACE TYPE SERVICE WATER LOOP DEMAND INLET BRANCH,STORY GROUND BLENDED SPACE TYPE SERVICE WATER LOOP DEMAND BRANCH 1,STORY GROUND BLENDED SPACE TYPE SERVICE WATER LOOP,Demand
     Plant Loop Connector Nodes,   1,Splitter,STORY GROUND BLENDED SPACE TYPE SERVICE WATER LOOP DEMAND SPLITTER,STORY GROUND BLENDED SPACE TYPE SERVICE WATER LOOP PIPE 320.0FT OUTLET WATER NODE,PIPE ADIABATIC 2 INLET WATER NODE,STORY GROUND BLENDED SPACE TYPE SERVICE WATER LOOP,Demand
     Plant Loop Connector Branches,2,Splitter,STORY GROUND BLENDED SPACE TYPE SERVICE WATER LOOP DEMAND SPLITTER,STORY GROUND BLENDED SPACE TYPE SERVICE WATER LOOP DEMAND INLET BRANCH,STORY GROUND BLENDED SPACE TYPE SERVICE WATER LOOP DEMAND BRANCH 2,STORY GROUND BLENDED SPACE TYPE SERVICE WATER LOOP,Demand
     Plant Loop Connector Nodes,   2,Splitter,STORY GROUND BLENDED SPACE TYPE SERVICE WATER LOOP DEMAND SPLITTER,STORY GROUND BLENDED SPACE TYPE SERVICE WATER LOOP PIPE 320.0FT OUTLET WATER NODE,STORY GROUND BLENDED SPACE TYPE 16 UNITS WUC 0.93GPM AT 110F INLET WATER NODE,STORY GROUND BLENDED SPACE TYPE SERVICE WATER LOOP,Demand
     Plant Loop Connector Branches,3,Splitter,STORY GROUND BLENDED SPACE TYPE SERVICE WATER LOOP DEMAND SPLITTER,STORY GROUND BLENDED SPACE TYPE SERVICE WATER LOOP DEMAND INLET BRANCH,STORY GROUND BLENDED SPACE TYPE SERVICE WATER LOOP DEMAND BYPASS BRANCH,STORY GROUND BLENDED SPACE TYPE SERVICE WATER LOOP,Demand
     Plant Loop Connector Nodes,   3,Splitter,STORY GROUND BLENDED SPACE TYPE SERVICE WATER LOOP DEMAND SPLITTER,STORY GROUND BLENDED SPACE TYPE SERVICE WATER LOOP PIPE 320.0FT OUTLET WATER NODE,STORY GROUND BLENDED SPACE TYPE SERVICE WATER LOOP DEMAND BYPASS PIPE INLET NODE,STORY GROUND BLENDED SPACE TYPE SERVICE WATER LOOP,Demand
   Plant Loop Connector,Mixer,STORY GROUND BLENDED SPACE TYPE SERVICE WATER LOOP DEMAND MIXER,STORY GROUND BLENDED SPACE TYPE SERVICE WATER LOOP,Demand,3
     Plant Loop Connector Branches,1,Mixer,STORY GROUND BLENDED SPACE TYPE SERVICE WATER LOOP DEMAND MIXER,STORY GROUND BLENDED SPACE TYPE SERVICE WATER LOOP DEMAND BRANCH 1,STORY GROUND BLENDED SPACE TYPE SERVICE WATER LOOP DEMAND OUTLET BRANCH,STORY GROUND BLENDED SPACE TYPE SERVICE WATER LOOP,Demand
     Plant Loop Connector Nodes,   1,Mixer,STORY GROUND BLENDED SPACE TYPE SERVICE WATER LOOP DEMAND MIXER,PIPE ADIABATIC 2 OUTLET WATER NODE,PIPE ADIABATIC 4 INLET WATER NODE,STORY GROUND BLENDED SPACE TYPE SERVICE WATER LOOP,Demand
     Plant Loop Connector Branches,2,Mixer,STORY GROUND BLENDED SPACE TYPE SERVICE WATER LOOP DEMAND MIXER,STORY GROUND BLENDED SPACE TYPE SERVICE WATER LOOP DEMAND BRANCH 2,STORY GROUND BLENDED SPACE TYPE SERVICE WATER LOOP DEMAND OUTLET BRANCH,STORY GROUND BLENDED SPACE TYPE SERVICE WATER LOOP,Demand
     Plant Loop Connector Nodes,   2,Mixer,STORY GROUND BLENDED SPACE TYPE SERVICE WATER LOOP DEMAND MIXER,STORY GROUND BLENDED SPACE TYPE 16 UNITS WUC 0.93GPM AT 110F OUTLET WATER NODE,PIPE ADIABATIC 4 INLET WATER NODE,STORY GROUND BLENDED SPACE TYPE SERVICE WATER LOOP,Demand
     Plant Loop Connector Branches,3,Mixer,STORY GROUND BLENDED SPACE TYPE SERVICE WATER LOOP DEMAND MIXER,STORY GROUND BLENDED SPACE TYPE SERVICE WATER LOOP DEMAND BYPASS BRANCH,STORY GROUND BLENDED SPACE TYPE SERVICE WATER LOOP DEMAND OUTLET BRANCH,STORY GROUND BLENDED SPACE TYPE SERVICE WATER LOOP,Demand
     Plant Loop Connector Nodes,   3,Mixer,STORY GROUND BLENDED SPACE TYPE SERVICE WATER LOOP DEMAND MIXER,STORY GROUND BLENDED SPACE TYPE SERVICE WATER LOOP DEMAND BYPASS PIPE OUTLET NODE,PIPE ADIABATIC 4 INLET WATER NODE,STORY GROUND BLENDED SPACE TYPE SERVICE WATER LOOP,Demand
 Plant Loop,STORY GROUND BLENDED SPACE TYPE SERVICE WATER LOOP,Supply,STORY GROUND BLENDED SPACE TYPE SERVICE WATER LOOP SUPPLY INLET NODE,STORY GROUND BLENDED SPACE TYPE SERVICE WATER LOOP SUPPLY OUTLET NODE,STORY GROUND BLENDED SPACE TYPE SERVICE WATER LOOP SUPPLY BRANCHES,STORY GROUND BLENDED SPACE TYPE SERVICE WATER LOOP SUPPLY CONNECTOR LIST
   Plant Loop Connector,Splitter,STORY GROUND BLENDED SPACE TYPE SERVICE WATER LOOP SUPPLY SPLITTER,STORY GROUND BLENDED SPACE TYPE SERVICE WATER LOOP,Supply,2
     Plant Loop Connector Branches,1,Splitter,STORY GROUND BLENDED SPACE TYPE SERVICE WATER LOOP SUPPLY SPLITTER,STORY GROUND BLENDED SPACE TYPE SERVICE WATER LOOP SUPPLY INLET BRANCH,STORY GROUND BLENDED SPACE TYPE SERVICE WATER LOOP SUPPLY BRANCH 1,STORY GROUND BLENDED SPACE TYPE SERVICE WATER LOOP,Supply
     Plant Loop Connector Nodes,   1,Splitter,STORY GROUND BLENDED SPACE TYPE SERVICE WATER LOOP SUPPLY SPLITTER,STORY GROUND BLENDED SPACE TYPE SERVICE WATER LOOP WATER MAINS PRESSURE DRIVEN OUTLET WATER NODE,PIPE ADIABATIC 1 INLET WATER NODE,STORY GROUND BLENDED SPACE TYPE SERVICE WATER LOOP,Supply
     Plant Loop Connector Branches,2,Splitter,STORY GROUND BLENDED SPACE TYPE SERVICE WATER LOOP SUPPLY SPLITTER,STORY GROUND BLENDED SPACE TYPE SERVICE WATER LOOP SUPPLY INLET BRANCH,STORY GROUND BLENDED SPACE TYPE SERVICE WATER LOOP SUPPLY BRANCH 2,STORY GROUND BLENDED SPACE TYPE SERVICE WATER LOOP,Supply
     Plant Loop Connector Nodes,   2,Splitter,STORY GROUND BLENDED SPACE TYPE SERVICE WATER LOOP SUPPLY SPLITTER,STORY GROUND BLENDED SPACE TYPE SERVICE WATER LOOP WATER MAINS PRESSURE DRIVEN OUTLET WATER NODE,NODE 7,STORY GROUND BLENDED SPACE TYPE SERVICE WATER LOOP,Supply
   Plant Loop Connector,Mixer,STORY GROUND BLENDED SPACE TYPE SERVICE WATER LOOP SUPPLY MIXER,STORY GROUND BLENDED SPACE TYPE SERVICE WATER LOOP,Supply,2
     Plant Loop Connector Branches,1,Mixer,STORY GROUND BLENDED SPACE TYPE SERVICE WATER LOOP SUPPLY MIXER,STORY GROUND BLENDED SPACE TYPE SERVICE WATER LOOP SUPPLY BRANCH 1,STORY GROUND BLENDED SPACE TYPE SERVICE WATER LOOP SUPPLY OUTLET BRANCH,STORY GROUND BLENDED SPACE TYPE SERVICE WATER LOOP,Supply
     Plant Loop Connector Nodes,   1,Mixer,STORY GROUND BLENDED SPACE TYPE SERVICE WATER LOOP SUPPLY MIXER,PIPE ADIABATIC 1 OUTLET WATER NODE,PIPE ADIABATIC 3 INLET WATER NODE,STORY GROUND BLENDED SPACE TYPE SERVICE WATER LOOP,Supply
     Plant Loop Connector Branches,2,Mixer,STORY GROUND BLENDED SPACE TYPE SERVICE WATER LOOP SUPPLY MIXER,STORY GROUND BLENDED SPACE TYPE SERVICE WATER LOOP SUPPLY BRANCH 2,STORY GROUND BLENDED SPACE TYPE SERVICE WATER LOOP SUPPLY OUTLET BRANCH,STORY GROUND BLENDED SPACE TYPE SERVICE WATER LOOP,Supply
     Plant Loop Connector Nodes,   2,Mixer,STORY GROUND BLENDED SPACE TYPE SERVICE WATER LOOP SUPPLY MIXER,NODE 8,PIPE ADIABATIC 3 INLET WATER NODE,STORY GROUND BLENDED SPACE TYPE SERVICE WATER LOOP,Supply
 Plant Loop Supply Connection,STORY GROUND BLENDED SPACE TYPE SERVICE WATER LOOP,STORY GROUND BLENDED SPACE TYPE SERVICE WATER LOOP SUPPLY OUTLET NODE,STORY GROUND BLENDED SPACE TYPE SERVICE WATER LOOP DEMAND INLET NODE
 Plant Loop Return Connection,STORY GROUND BLENDED SPACE TYPE SERVICE WATER LOOP,STORY GROUND BLENDED SPACE TYPE SERVICE WATER LOOP DEMAND OUTLET NODE,STORY GROUND BLENDED SPACE TYPE SERVICE WATER LOOP SUPPLY INLET NODE
 Plant Loop,STORY TOP BLENDED SPACE TYPE SERVICE WATER LOOP,Demand,STORY TOP BLENDED SPACE TYPE SERVICE WATER LOOP DEMAND INLET NODE,STORY TOP BLENDED SPACE TYPE SERVICE WATER LOOP DEMAND OUTLET NODE,STORY TOP BLENDED SPACE TYPE SERVICE WATER LOOP DEMAND BRANCHES,STORY TOP BLENDED SPACE TYPE SERVICE WATER LOOP DEMAND CONNECTOR LIST
   Plant Loop Connector,Splitter,STORY TOP BLENDED SPACE TYPE SERVICE WATER LOOP DEMAND SPLITTER,STORY TOP BLENDED SPACE TYPE SERVICE WATER LOOP,Demand,3
     Plant Loop Connector Branches,1,Splitter,STORY TOP BLENDED SPACE TYPE SERVICE WATER LOOP DEMAND SPLITTER,STORY TOP BLENDED SPACE TYPE SERVICE WATER LOOP DEMAND INLET BRANCH,STORY TOP BLENDED SPACE TYPE SERVICE WATER LOOP DEMAND BRANCH 1,STORY TOP BLENDED SPACE TYPE SERVICE WATER LOOP,Demand
     Plant Loop Connector Nodes,   1,Splitter,STORY TOP BLENDED SPACE TYPE SERVICE WATER LOOP DEMAND SPLITTER,STORY TOP BLENDED SPACE TYPE SERVICE WATER LOOP PIPE 320.0FT OUTLET WATER NODE,PIPE ADIABATIC 6 INLET WATER NODE,STORY TOP BLENDED SPACE TYPE SERVICE WATER LOOP,Demand
     Plant Loop Connector Branches,2,Splitter,STORY TOP BLENDED SPACE TYPE SERVICE WATER LOOP DEMAND SPLITTER,STORY TOP BLENDED SPACE TYPE SERVICE WATER LOOP DEMAND INLET BRANCH,STORY TOP BLENDED SPACE TYPE SERVICE WATER LOOP DEMAND BRANCH 2,STORY TOP BLENDED SPACE TYPE SERVICE WATER LOOP,Demand
     Plant Loop Connector Nodes,   2,Splitter,STORY TOP BLENDED SPACE TYPE SERVICE WATER LOOP DEMAND SPLITTER,STORY TOP BLENDED SPACE TYPE SERVICE WATER LOOP PIPE 320.0FT OUTLET WATER NODE,STORY TOP BLENDED SPACE TYPE 16 UNITS WUC 0.93GPM AT 110F INLET WATER NODE,STORY TOP BLENDED SPACE TYPE SERVICE WATER LOOP,Demand
     Plant Loop Connector Branches,3,Splitter,STORY TOP BLENDED SPACE TYPE SERVICE WATER LOOP DEMAND SPLITTER,STORY TOP BLENDED SPACE TYPE SERVICE WATER LOOP DEMAND INLET BRANCH,STORY TOP BLENDED SPACE TYPE SERVICE WATER LOOP DEMAND BYPASS BRANCH,STORY TOP BLENDED SPACE TYPE SERVICE WATER LOOP,Demand
     Plant Loop Connector Nodes,   3,Splitter,STORY TOP BLENDED SPACE TYPE SERVICE WATER LOOP DEMAND SPLITTER,STORY TOP BLENDED SPACE TYPE SERVICE WATER LOOP PIPE 320.0FT OUTLET WATER NODE,STORY TOP BLENDED SPACE TYPE SERVICE WATER LOOP DEMAND BYPASS PIPE INLET NODE,STORY TOP BLENDED SPACE TYPE SERVICE WATER LOOP,Demand
   Plant Loop Connector,Mixer,STORY TOP BLENDED SPACE TYPE SERVICE WATER LOOP DEMAND MIXER,STORY TOP BLENDED SPACE TYPE SERVICE WATER LOOP,Demand,3
     Plant Loop Connector Branches,1,Mixer,STORY TOP BLENDED SPACE TYPE SERVICE WATER LOOP DEMAND MIXER,STORY TOP BLENDED SPACE TYPE SERVICE WATER LOOP DEMAND BRANCH 1,STORY TOP BLENDED SPACE TYPE SERVICE WATER LOOP DEMAND OUTLET BRANCH,STORY TOP BLENDED SPACE TYPE SERVICE WATER LOOP,Demand
     Plant Loop Connector Nodes,   1,Mixer,STORY TOP BLENDED SPACE TYPE SERVICE WATER LOOP DEMAND MIXER,PIPE ADIABATIC 6 OUTLET WATER NODE,PIPE ADIABATIC 8 INLET WATER NODE,STORY TOP BLENDED SPACE TYPE SERVICE WATER LOOP,Demand
     Plant Loop Connector Branches,2,Mixer,STORY TOP BLENDED SPACE TYPE SERVICE WATER LOOP DEMAND MIXER,STORY TOP BLENDED SPACE TYPE SERVICE WATER LOOP DEMAND BRANCH 2,STORY TOP BLENDED SPACE TYPE SERVICE WATER LOOP DEMAND OUTLET BRANCH,STORY TOP BLENDED SPACE TYPE SERVICE WATER LOOP,Demand
     Plant Loop Connector Nodes,   2,Mixer,STORY TOP BLENDED SPACE TYPE SERVICE WATER LOOP DEMAND MIXER,STORY TOP BLENDED SPACE TYPE 16 UNITS WUC 0.93GPM AT 110F OUTLET WATER NODE,PIPE ADIABATIC 8 INLET WATER NODE,STORY TOP BLENDED SPACE TYPE SERVICE WATER LOOP,Demand
     Plant Loop Connector Branches,3,Mixer,STORY TOP BLENDED SPACE TYPE SERVICE WATER LOOP DEMAND MIXER,STORY TOP BLENDED SPACE TYPE SERVICE WATER LOOP DEMAND BYPASS BRANCH,STORY TOP BLENDED SPACE TYPE SERVICE WATER LOOP DEMAND OUTLET BRANCH,STORY TOP BLENDED SPACE TYPE SERVICE WATER LOOP,Demand
     Plant Loop Connector Nodes,   3,Mixer,STORY TOP BLENDED SPACE TYPE SERVICE WATER LOOP DEMAND MIXER,STORY TOP BLENDED SPACE TYPE SERVICE WATER LOOP DEMAND BYPASS PIPE OUTLET NODE,PIPE ADIABATIC 8 INLET WATER NODE,STORY TOP BLENDED SPACE TYPE SERVICE WATER LOOP,Demand
 Plant Loop,STORY TOP BLENDED SPACE TYPE SERVICE WATER LOOP,Supply,STORY TOP BLENDED SPACE TYPE SERVICE WATER LOOP SUPPLY INLET NODE,STORY TOP BLENDED SPACE TYPE SERVICE WATER LOOP SUPPLY OUTLET NODE,STORY TOP BLENDED SPACE TYPE SERVICE WATER LOOP SUPPLY BRANCHES,STORY TOP BLENDED SPACE TYPE SERVICE WATER LOOP SUPPLY CONNECTOR LIST
   Plant Loop Connector,Splitter,STORY TOP BLENDED SPACE TYPE SERVICE WATER LOOP SUPPLY SPLITTER,STORY TOP BLENDED SPACE TYPE SERVICE WATER LOOP,Supply,2
     Plant Loop Connector Branches,1,Splitter,STORY TOP BLENDED SPACE TYPE SERVICE WATER LOOP SUPPLY SPLITTER,STORY TOP BLENDED SPACE TYPE SERVICE WATER LOOP SUPPLY INLET BRANCH,STORY TOP BLENDED SPACE TYPE SERVICE WATER LOOP SUPPLY BRANCH 1,STORY TOP BLENDED SPACE TYPE SERVICE WATER LOOP,Supply
     Plant Loop Connector Nodes,   1,Splitter,STORY TOP BLENDED SPACE TYPE SERVICE WATER LOOP SUPPLY SPLITTER,STORY TOP BLENDED SPACE TYPE SERVICE WATER LOOP WATER MAINS PRESSURE DRIVEN OUTLET WATER NODE,PIPE ADIABATIC 5 INLET WATER NODE,STORY TOP BLENDED SPACE TYPE SERVICE WATER LOOP,Supply
     Plant Loop Connector Branches,2,Splitter,STORY TOP BLENDED SPACE TYPE SERVICE WATER LOOP SUPPLY SPLITTER,STORY TOP BLENDED SPACE TYPE SERVICE WATER LOOP SUPPLY INLET BRANCH,STORY TOP BLENDED SPACE TYPE SERVICE WATER LOOP SUPPLY BRANCH 2,STORY TOP BLENDED SPACE TYPE SERVICE WATER LOOP,Supply
     Plant Loop Connector Nodes,   2,Splitter,STORY TOP BLENDED SPACE TYPE SERVICE WATER LOOP SUPPLY SPLITTER,STORY TOP BLENDED SPACE TYPE SERVICE WATER LOOP WATER MAINS PRESSURE DRIVEN OUTLET WATER NODE,NODE 3,STORY TOP BLENDED SPACE TYPE SERVICE WATER LOOP,Supply
   Plant Loop Connector,Mixer,STORY TOP BLENDED SPACE TYPE SERVICE WATER LOOP SUPPLY MIXER,STORY TOP BLENDED SPACE TYPE SERVICE WATER LOOP,Supply,2
     Plant Loop Connector Branches,1,Mixer,STORY TOP BLENDED SPACE TYPE SERVICE WATER LOOP SUPPLY MIXER,STORY TOP BLENDED SPACE TYPE SERVICE WATER LOOP SUPPLY BRANCH 1,STORY TOP BLENDED SPACE TYPE SERVICE WATER LOOP SUPPLY OUTLET BRANCH,STORY TOP BLENDED SPACE TYPE SERVICE WATER LOOP,Supply
     Plant Loop Connector Nodes,   1,Mixer,STORY TOP BLENDED SPACE TYPE SERVICE WATER LOOP SUPPLY MIXER,PIPE ADIABATIC 5 OUTLET WATER NODE,PIPE ADIABATIC 7 INLET WATER NODE,STORY TOP BLENDED SPACE TYPE SERVICE WATER LOOP,Supply
     Plant Loop Connector Branches,2,Mixer,STORY TOP BLENDED SPACE TYPE SERVICE WATER LOOP SUPPLY MIXER,STORY TOP BLENDED SPACE TYPE SERVICE WATER LOOP SUPPLY BRANCH 2,STORY TOP BLENDED SPACE TYPE SERVICE WATER LOOP SUPPLY OUTLET BRANCH,STORY TOP BLENDED SPACE TYPE SERVICE WATER LOOP,Supply
     Plant Loop Connector Nodes,   2,Mixer,STORY TOP BLENDED SPACE TYPE SERVICE WATER LOOP SUPPLY MIXER,NODE 4,PIPE ADIABATIC 7 INLET WATER NODE,STORY TOP BLENDED SPACE TYPE SERVICE WATER LOOP,Supply
 Plant Loop Supply Connection,STORY TOP BLENDED SPACE TYPE SERVICE WATER LOOP,STORY TOP BLENDED SPACE TYPE SERVICE WATER LOOP SUPPLY OUTLET NODE,STORY TOP BLENDED SPACE TYPE SERVICE WATER LOOP DEMAND INLET NODE
 Plant Loop Return Connection,STORY TOP BLENDED SPACE TYPE SERVICE WATER LOOP,STORY TOP BLENDED SPACE TYPE SERVICE WATER LOOP DEMAND OUTLET NODE,STORY TOP BLENDED SPACE TYPE SERVICE WATER LOOP SUPPLY INLET NODE
! ===============================================================
! <# Condenser Loops>,<Number of Condenser Loops>
 #Condenser Loops,0
! <Condenser Loop>,<Condenser Loop Name>,<Loop Type>,<Inlet Node Name>,<Outlet Node Name>,<Branch List>,<Connector List>
! <Condenser Loop Connector>,<Connector Type>,<Connector Name>,<Loop Name>,<Loop Type>,<Number of Inlets/Outlets>
! <Condenser Loop Connector Branches>,<Connector Node Count>,<Connector Type>,<Connector Name>,<Inlet Branch>,<Outlet Branch>,<Loop Name>,<Loop Type>
! <Condenser Loop Connector Nodes>,<Connector Node Count>,<Connector Type>,<Connector Name>,<Inlet Node>,<Outlet Node>,<Loop Name>,<Loop Type>
! <Condenser Loop Supply Connection>,<Condenser Loop Name>,<Supply Side Outlet Node Name>,<Demand Side Inlet Node Name>
! <Condenser Loop Return Connection>,<Condenser Loop Name>,<Demand Side Outlet Node Name>,<Supply Side Inlet Node Name>
! ===============================================================
! <# Controlled Zones>,<Number of Controlled Zones>
 #Controlled Zones,10
! <Controlled Zone>,<Controlled Zone Name>,<Equip List Name>,<Control List Name>,<Zone Node Name>,<# Inlet Nodes>,<# Exhaust Nodes>,<# Return Nodes>
! <Controlled Zone Inlet>,<Inlet Node Count>,<Controlled Zone Name>,<Supply Air Inlet Node Name>,<SD Sys:Cooling/Heating [DD:Cooling] Inlet Node Name>,<DD Sys:Heating Inlet Node Name>
! <Controlled Zone Exhaust>,<Exhaust Node Count>,<Controlled Zone Name>,<Exhaust Air Node Name>
 Controlled Zone,BUILDING STORY 1 THERMALZONE,BUILDING STORY 1 THERMALZONE EQUIPMENT LIST,,BUILDING STORY 1 THERMALZONE ZONE AIR NODE,2,2,0
   Controlled Zone Inlet,1,BUILDING STORY 1 THERMALZONE,NODE 2,Undefined,N/A
   Controlled Zone Inlet,2,BUILDING STORY 1 THERMALZONE,NODE 6,Undefined,N/A
   Controlled Zone Exhaust,1,BUILDING STORY 1 THERMALZONE,NODE 1
   Controlled Zone Exhaust,2,BUILDING STORY 1 THERMALZONE,NODE 5
 Controlled Zone,BUILDING STORY 1 THERMALZONE 1,BUILDING STORY 1 THERMALZONE 1 EQUIPMENT LIST,,BUILDING STORY 1 THERMALZONE 1 ZONE AIR NODE,0,0,0
 Controlled Zone,BUILDING STORY 1 THERMALZONE 2,BUILDING STORY 1 THERMALZONE 2 EQUIPMENT LIST,,BUILDING STORY 1 THERMALZONE 2 ZONE AIR NODE,0,0,0
 Controlled Zone,BUILDING STORY 1 THERMALZONE 3,BUILDING STORY 1 THERMALZONE 3 EQUIPMENT LIST,,BUILDING STORY 1 THERMALZONE 3 ZONE AIR NODE,0,0,0
 Controlled Zone,BUILDING STORY 1 THERMALZONE 4,BUILDING STORY 1 THERMALZONE 4 EQUIPMENT LIST,,BUILDING STORY 1 THERMALZONE 4 ZONE AIR NODE,0,0,0
 Controlled Zone,BUILDING STORY 2 THERMALZONE,BUILDING STORY 2 THERMALZONE EQUIPMENT LIST,,BUILDING STORY 2 THERMALZONE ZONE AIR NODE,0,0,0
 Controlled Zone,BUILDING STORY 2 THERMALZONE 1,BUILDING STORY 2 THERMALZONE 1 EQUIPMENT LIST,,BUILDING STORY 2 THERMALZONE 1 ZONE AIR NODE,0,0,0
 Controlled Zone,BUILDING STORY 2 THERMALZONE 2,BUILDING STORY 2 THERMALZONE 2 EQUIPMENT LIST,,BUILDING STORY 2 THERMALZONE 2 ZONE AIR NODE,0,0,0
 Controlled Zone,BUILDING STORY 2 THERMALZONE 3,BUILDING STORY 2 THERMALZONE 3 EQUIPMENT LIST,,BUILDING STORY 2 THERMALZONE 3 ZONE AIR NODE,0,0,0
 Controlled Zone,BUILDING STORY 2 THERMALZONE 4,BUILDING STORY 2 THERMALZONE 4 EQUIPMENT LIST,,BUILDING STORY 2 THERMALZONE 4 ZONE AIR NODE,0,0,0
! ===============================================================
! <#Zone Equipment Lists>,<Number of Zone Equipment Lists>
 #Zone Equipment Lists,10
! <Zone Equipment List>,<Zone Equipment List Count>,<Zone Equipment List Name>,<Zone Name>,<Number of Components>
! <Zone Equipment Component>,<Component Count>,<Component Type>,<Component Name>,<Zone Name>,<Heating Priority>,<Cooling Priority>
 Zone Equipment List,1,BUILDING STORY 1 THERMALZONE EQUIPMENT LIST,BUILDING STORY 1 THERMALZONE,3
   Zone Equipment Component,1,ZONEHVAC:BASEBOARD:CONVECTIVE:ELECTRIC,BUILDING STORY 1 THERMALZONE ELECTRIC BASEBOARD,BUILDING STORY 1 THERMALZONE,3,3
   Zone Equipment Component,2,WATERHEATER:HEATPUMP:PUMPEDCONDENSER,800GAL HEAT PUMP WATER HEATER - 320KBTU/HR_TYPE_B,BUILDING STORY 1 THERMALZONE,2,2
   Zone Equipment Component,3,WATERHEATER:HEATPUMP:PUMPEDCONDENSER,800GAL HEAT PUMP WATER HEATER - 320KBTU/HR_TYPE_B 1,BUILDING STORY 1 THERMALZONE,1,1
 Zone Equipment List,2,BUILDING STORY 1 THERMALZONE 1 EQUIPMENT LIST,BUILDING STORY 1 THERMALZONE 1,1
   Zone Equipment Component,1,ZONEHVAC:BASEBOARD:CONVECTIVE:ELECTRIC,BUILDING STORY 1 THERMALZONE 1 ELECTRIC BASEBOARD,BUILDING STORY 1 THERMALZONE 1,1,1
 Zone Equipment List,3,BUILDING STORY 1 THERMALZONE 2 EQUIPMENT LIST,BUILDING STORY 1 THERMALZONE 2,1
   Zone Equipment Component,1,ZONEHVAC:BASEBOARD:CONVECTIVE:ELECTRIC,BUILDING STORY 1 THERMALZONE 2 ELECTRIC BASEBOARD,BUILDING STORY 1 THERMALZONE 2,1,1
 Zone Equipment List,4,BUILDING STORY 1 THERMALZONE 3 EQUIPMENT LIST,BUILDING STORY 1 THERMALZONE 3,1
   Zone Equipment Component,1,ZONEHVAC:BASEBOARD:CONVECTIVE:ELECTRIC,BUILDING STORY 1 THERMALZONE 3 ELECTRIC BASEBOARD,BUILDING STORY 1 THERMALZONE 3,1,1
 Zone Equipment List,5,BUILDING STORY 1 THERMALZONE 4 EQUIPMENT LIST,BUILDING STORY 1 THERMALZONE 4,1
   Zone Equipment Component,1,ZONEHVAC:BASEBOARD:CONVECTIVE:ELECTRIC,BUILDING STORY 1 THERMALZONE 4 ELECTRIC BASEBOARD,BUILDING STORY 1 THERMALZONE 4,1,1
 Zone Equipment List,6,BUILDING STORY 2 THERMALZONE EQUIPMENT LIST,BUILDING STORY 2 THERMALZONE,1
   Zone Equipment Component,1,ZONEHVAC:BASEBOARD:CONVECTIVE:ELECTRIC,BUILDING STORY 2 THERMALZONE ELECTRIC BASEBOARD,BUILDING STORY 2 THERMALZONE,1,1
 Zone Equipment List,7,BUILDING STORY 2 THERMALZONE 1 EQUIPMENT LIST,BUILDING STORY 2 THERMALZONE 1,1
   Zone Equipment Component,1,ZONEHVAC:BASEBOARD:CONVECTIVE:ELECTRIC,BUILDING STORY 2 THERMALZONE 1 ELECTRIC BASEBOARD,BUILDING STORY 2 THERMALZONE 1,1,1
 Zone Equipment List,8,BUILDING STORY 2 THERMALZONE 2 EQUIPMENT LIST,BUILDING STORY 2 THERMALZONE 2,1
   Zone Equipment Component,1,ZONEHVAC:BASEBOARD:CONVECTIVE:ELECTRIC,BUILDING STORY 2 THERMALZONE 2 ELECTRIC BASEBOARD,BUILDING STORY 2 THERMALZONE 2,1,1
 Zone Equipment List,9,BUILDING STORY 2 THERMALZONE 3 EQUIPMENT LIST,BUILDING STORY 2 THERMALZONE 3,1
   Zone Equipment Component,1,ZONEHVAC:BASEBOARD:CONVECTIVE:ELECTRIC,BUILDING STORY 2 THERMALZONE 3 ELECTRIC BASEBOARD,BUILDING STORY 2 THERMALZONE 3,1,1
 Zone Equipment List,10,BUILDING STORY 2 THERMALZONE 4 EQUIPMENT LIST,BUILDING STORY 2 THERMALZONE 4,1
   Zone Equipment Component,1,ZONEHVAC:BASEBOARD:CONVECTIVE:ELECTRIC,BUILDING STORY 2 THERMALZONE 4 ELECTRIC BASEBOARD,BUILDING STORY 2 THERMALZONE 4,1,1
! ===============================================================
! <#AirLoopHVACs>,<Number of AirLoopHVACs>
 #AirLoopHVACs,0
! <AirLoopHVAC>,<Air Loop Name>,<# Return Nodes>,<# Supply Nodes>,<# Zones Cooled>,<# Zones Heated>,<Outdoor Air Used>
! <AirLoop Return Connections>,<Connection Count>,<AirLoopHVAC Name>,<Zn Eqp Return Node #>,<Zn Eqp Return Node Name>,<AirLoop Return Node #>,<Air Loop Return Node Name>
! <AirLoop Supply Connections>,<Connection Count>,<AirLoopHVAC Name>,<Zn Eqp Supply Node #>,<Zn Eqp Supply Node Name>,<AirLoop Supply Node #>,<Air Loop Supply Node Name>
! <Cooled Zone Info>,<Cooled Zone Count>,<Cooled Zone Name>,<Cooled Zone Inlet Node #>,<Cooled Zone Inlet Node Name>,<AirLoopHVAC Name>
! <Heated Zone Info>,<Heated Zone Count>,<Heated Zone Name>,<Heated Zone Inlet Node #>,<Heated Zone Inlet Node Name>,<AirLoopHVAC Name>
! <Outdoor Air Connections>,<OA Inlet Node #>,<OA Return Air Inlet Node Name>,<OA Outlet Node #>,<OA Mixed Air Outlet Node Name>,<AirLoopHVAC Name>
! <AirLoopHVAC Connector>,<Connector Type>,<Connector Name>,<Loop Name>,<Loop Type>,<Number of Inlets/Outlets>
! <AirLoopHVAC Connector Branches>,<Connector Node Count>,<Connector Type>,<Connector Name>,<Inlet Branch>,<Outlet Branch>,<Loop Name>,<Loop Type>
! <AirLoopHVAC Connector Nodes>,<Connector Node Count>,<Connector Type>,<Connector Name>,<Inlet Node>,<Outlet Node>,<Loop Name>,<Loop Type>
! ===============================================================
! <#Parent Node Connections>,<Number of Parent Node Connections>
 #Parent Node Connections,58
! <Parent Node Connection>,<Node Name>,<Node ObjectType>,<Node ObjectName>,<Node ConnectionType>,<Node FluidStream>
 Parent Node Connection,STORY GROUND BLENDED SPACE TYPE SERVICE WATER LOOP SUPPLY INLET NODE,BRANCH,STORY GROUND BLENDED SPACE TYPE SERVICE WATER LOOP SUPPLY INLET BRANCH,Inlet,1
 Parent Node Connection,STORY GROUND BLENDED SPACE TYPE SERVICE WATER LOOP WATER MAINS PRESSURE DRIVEN OUTLET WATER NODE,BRANCH,STORY GROUND BLENDED SPACE TYPE SERVICE WATER LOOP SUPPLY INLET BRANCH,Outlet,1
 Parent Node Connection,PIPE ADIABATIC 1 INLET WATER NODE,BRANCH,STORY GROUND BLENDED SPACE TYPE SERVICE WATER LOOP SUPPLY BRANCH 1,Inlet,1
 Parent Node Connection,PIPE ADIABATIC 1 OUTLET WATER NODE,BRANCH,STORY GROUND BLENDED SPACE TYPE SERVICE WATER LOOP SUPPLY BRANCH 1,Outlet,1
 Parent Node Connection,NODE 7,BRANCH,STORY GROUND BLENDED SPACE TYPE SERVICE WATER LOOP SUPPLY BRANCH 2,Inlet,1
 Parent Node Connection,NODE 8,BRANCH,STORY GROUND BLENDED SPACE TYPE SERVICE WATER LOOP SUPPLY BRANCH 2,Outlet,1
 Parent Node Connection,PIPE ADIABATIC 3 INLET WATER NODE,BRANCH,STORY GROUND BLENDED SPACE TYPE SERVICE WATER LOOP SUPPLY OUTLET BRANCH,Inlet,1
 Parent Node Connection,STORY GROUND BLENDED SPACE TYPE SERVICE WATER LOOP SUPPLY OUTLET NODE,BRANCH,STORY GROUND BLENDED SPACE TYPE SERVICE WATER LOOP SUPPLY OUTLET BRANCH,Outlet,1
 Parent Node Connection,STORY GROUND BLENDED SPACE TYPE SERVICE WATER LOOP DEMAND INLET NODE,BRANCH,STORY GROUND BLENDED SPACE TYPE SERVICE WATER LOOP DEMAND INLET BRANCH,Inlet,1
 Parent Node Connection,STORY GROUND BLENDED SPACE TYPE SERVICE WATER LOOP PIPE 320.0FT OUTLET WATER NODE,BRANCH,STORY GROUND BLENDED SPACE TYPE SERVICE WATER LOOP DEMAND INLET BRANCH,Outlet,1
 Parent Node Connection,PIPE ADIABATIC 2 INLET WATER NODE,BRANCH,STORY GROUND BLENDED SPACE TYPE SERVICE WATER LOOP DEMAND BRANCH 1,Inlet,1
 Parent Node Connection,PIPE ADIABATIC 2 OUTLET WATER NODE,BRANCH,STORY GROUND BLENDED SPACE TYPE SERVICE WATER LOOP DEMAND BRANCH 1,Outlet,1
 Parent Node Connection,STORY GROUND BLENDED SPACE TYPE 16 UNITS WUC 0.93GPM AT 110F INLET WATER NODE,BRANCH,STORY GROUND BLENDED SPACE TYPE SERVICE WATER LOOP DEMAND BRANCH 2,Inlet,1
 Parent Node Connection,STORY GROUND BLENDED SPACE TYPE 16 UNITS WUC 0.93GPM AT 110F OUTLET WATER NODE,BRANCH,STORY GROUND BLENDED SPACE TYPE SERVICE WATER LOOP DEMAND BRANCH 2,Outlet,1
 Parent Node Connection,STORY GROUND BLENDED SPACE TYPE SERVICE WATER LOOP DEMAND BYPASS PIPE INLET NODE,BRANCH,STORY GROUND BLENDED SPACE TYPE SERVICE WATER LOOP DEMAND BYPASS BRANCH,Inlet,1
 Parent Node Connection,STORY GROUND BLENDED SPACE TYPE SERVICE WATER LOOP DEMAND BYPASS PIPE OUTLET NODE,BRANCH,STORY GROUND BLENDED SPACE TYPE SERVICE WATER LOOP DEMAND BYPASS BRANCH,Outlet,1
 Parent Node Connection,PIPE ADIABATIC 4 INLET WATER NODE,BRANCH,STORY GROUND BLENDED SPACE TYPE SERVICE WATER LOOP DEMAND OUTLET BRANCH,Inlet,1
 Parent Node Connection,STORY GROUND BLENDED SPACE TYPE SERVICE WATER LOOP DEMAND OUTLET NODE,BRANCH,STORY GROUND BLENDED SPACE TYPE SERVICE WATER LOOP DEMAND OUTLET BRANCH,Outlet,1
 Parent Node Connection,STORY TOP BLENDED SPACE TYPE SERVICE WATER LOOP SUPPLY INLET NODE,BRANCH,STORY TOP BLENDED SPACE TYPE SERVICE WATER LOOP SUPPLY INLET BRANCH,Inlet,1
 Parent Node Connection,STORY TOP BLENDED SPACE TYPE SERVICE WATER LOOP WATER MAINS PRESSURE DRIVEN OUTLET WATER NODE,BRANCH,STORY TOP BLENDED SPACE TYPE SERVICE WATER LOOP SUPPLY INLET BRANCH,Outlet,1
 Parent Node Connection,PIPE ADIABATIC 5 INLET WATER NODE,BRANCH,STORY TOP BLENDED SPACE TYPE SERVICE WATER LOOP SUPPLY BRANCH 1,Inlet,1
 Parent Node Connection,PIPE ADIABATIC 5 OUTLET WATER NODE,BRANCH,STORY TOP BLENDED SPACE TYPE SERVICE WATER LOOP SUPPLY BRANCH 1,Outlet,1
 Parent Node Connection,NODE 3,BRANCH,STORY TOP BLENDED SPACE TYPE SERVICE WATER LOOP SUPPLY BRANCH 2,Inlet,1
 Parent Node Connection,NODE 4,BRANCH,STORY TOP BLENDED SPACE TYPE SERVICE WATER LOOP SUPPLY BRANCH 2,Outlet,1
 Parent Node Connection,PIPE ADIABATIC 7 INLET WATER NODE,BRANCH,STORY TOP BLENDED SPACE TYPE SERVICE WATER LOOP SUPPLY OUTLET BRANCH,Inlet,1
 Parent Node Connection,STORY TOP BLENDED SPACE TYPE SERVICE WATER LOOP SUPPLY OUTLET NODE,BRANCH,STORY TOP BLENDED SPACE TYPE SERVICE WATER LOOP SUPPLY OUTLET BRANCH,Outlet,1
 Parent Node Connection,STORY TOP BLENDED SPACE TYPE SERVICE WATER LOOP DEMAND INLET NODE,BRANCH,STORY TOP BLENDED SPACE TYPE SERVICE WATER LOOP DEMAND INLET BRANCH,Inlet,1
 Parent Node Connection,STORY TOP BLENDED SPACE TYPE SERVICE WATER LOOP PIPE 320.0FT OUTLET WATER NODE,BRANCH,STORY TOP BLENDED SPACE TYPE SERVICE WATER LOOP DEMAND INLET BRANCH,Outlet,1
 Parent Node Connection,PIPE ADIABATIC 6 INLET WATER NODE,BRANCH,STORY TOP BLENDED SPACE TYPE SERVICE WATER LOOP DEMAND BRANCH 1,Inlet,1
 Parent Node Connection,PIPE ADIABATIC 6 OUTLET WATER NODE,BRANCH,STORY TOP BLENDED SPACE TYPE SERVICE WATER LOOP DEMAND BRANCH 1,Outlet,1
 Parent Node Connection,STORY TOP BLENDED SPACE TYPE 16 UNITS WUC 0.93GPM AT 110F INLET WATER NODE,BRANCH,STORY TOP BLENDED SPACE TYPE SERVICE WATER LOOP DEMAND BRANCH 2,Inlet,1
 Parent Node Connection,STORY TOP BLENDED SPACE TYPE 16 UNITS WUC 0.93GPM AT 110F OUTLET WATER NODE,BRANCH,STORY TOP BLENDED SPACE TYPE SERVICE WATER LOOP DEMAND BRANCH 2,Outlet,1
 Parent Node Connection,STORY TOP BLENDED SPACE TYPE SERVICE WATER LOOP DEMAND BYPASS PIPE INLET NODE,BRANCH,STORY TOP BLENDED SPACE TYPE SERVICE WATER LOOP DEMAND BYPASS BRANCH,Inlet,1
 Parent Node Connection,STORY TOP BLENDED SPACE TYPE SERVICE WATER LOOP DEMAND BYPASS PIPE OUTLET NODE,BRANCH,STORY TOP BLENDED SPACE TYPE SERVICE WATER LOOP DEMAND BYPASS BRANCH,Outlet,1
 Parent Node Connection,PIPE ADIABATIC 8 INLET WATER NODE,BRANCH,STORY TOP BLENDED SPACE TYPE SERVICE WATER LOOP DEMAND OUTLET BRANCH,Inlet,1
 Parent Node Connection,STORY TOP BLENDED SPACE TYPE SERVICE WATER LOOP DEMAND OUTLET NODE,BRANCH,STORY TOP BLENDED SPACE TYPE SERVICE WATER LOOP DEMAND OUTLET BRANCH,Outlet,1
 Parent Node Connection,800GAL HEAT PUMP WATER HEATER - 320KBTU/HR_TYPE_B TANK OUTLET - CONDENSER INLET,WATERHEATER:HEATPUMP:PUMPEDCONDENSER,800GAL HEAT PUMP WATER HEATER - 320KBTU/HR_TYPE_B,Inlet,2
 Parent Node Connection,800GAL HEAT PUMP WATER HEATER - 320KBTU/HR_TYPE_B CONDENSER OUTLET - TANK INLET,WATERHEATER:HEATPUMP:PUMPEDCONDENSER,800GAL HEAT PUMP WATER HEATER - 320KBTU/HR_TYPE_B,Outlet,2
 Parent Node Connection,NODE 3,WATERHEATER:HEATPUMP:PUMPEDCONDENSER,800GAL HEAT PUMP WATER HEATER - 320KBTU/HR_TYPE_B,Inlet,1
 Parent Node Connection,NODE 4,WATERHEATER:HEATPUMP:PUMPEDCONDENSER,800GAL HEAT PUMP WATER HEATER - 320KBTU/HR_TYPE_B,Outlet,1
 Parent Node Connection,NODE 1,WATERHEATER:HEATPUMP:PUMPEDCONDENSER,800GAL HEAT PUMP WATER HEATER - 320KBTU/HR_TYPE_B,Inlet,1
 Parent Node Connection,NODE 2,WATERHEATER:HEATPUMP:PUMPEDCONDENSER,800GAL HEAT PUMP WATER HEATER - 320KBTU/HR_TYPE_B,Outlet,1
 Parent Node Connection,800GAL HEAT PUMP WATER HEATER - 320KBTU/HR_TYPE_B 1 TANK OUTLET - CONDENSER INLET,WATERHEATER:HEATPUMP:PUMPEDCONDENSER,800GAL HEAT PUMP WATER HEATER - 320KBTU/HR_TYPE_B 1,Inlet,2
 Parent Node Connection,800GAL HEAT PUMP WATER HEATER - 320KBTU/HR_TYPE_B 1 CONDENSER OUTLET - TANK INLET,WATERHEATER:HEATPUMP:PUMPEDCONDENSER,800GAL HEAT PUMP WATER HEATER - 320KBTU/HR_TYPE_B 1,Outlet,2
 Parent Node Connection,NODE 7,WATERHEATER:HEATPUMP:PUMPEDCONDENSER,800GAL HEAT PUMP WATER HEATER - 320KBTU/HR_TYPE_B 1,Inlet,1
 Parent Node Connection,NODE 8,WATERHEATER:HEATPUMP:PUMPEDCONDENSER,800GAL HEAT PUMP WATER HEATER - 320KBTU/HR_TYPE_B 1,Outlet,1
 Parent Node Connection,NODE 5,WATERHEATER:HEATPUMP:PUMPEDCONDENSER,800GAL HEAT PUMP WATER HEATER - 320KBTU/HR_TYPE_B 1,Inlet,1
 Parent Node Connection,NODE 6,WATERHEATER:HEATPUMP:PUMPEDCONDENSER,800GAL HEAT PUMP WATER HEATER - 320KBTU/HR_TYPE_B 1,Outlet,1
 Parent Node Connection,STORY GROUND BLENDED SPACE TYPE SERVICE WATER LOOP SUPPLY INLET NODE,PLANTLOOP,STORY GROUND BLENDED SPACE TYPE SERVICE WATER LOOP,Inlet,1
 Parent Node Connection,STORY GROUND BLENDED SPACE TYPE SERVICE WATER LOOP SUPPLY OUTLET NODE,PLANTLOOP,STORY GROUND BLENDED SPACE TYPE SERVICE WATER LOOP,Outlet,1
 Parent Node Connection,STORY GROUND BLENDED SPACE TYPE SERVICE WATER LOOP DEMAND INLET NODE,PLANTLOOP,STORY GROUND BLENDED SPACE TYPE SERVICE WATER LOOP,Inlet,1
 Parent Node Connection,STORY GROUND BLENDED SPACE TYPE SERVICE WATER LOOP DEMAND OUTLET NODE,PLANTLOOP,STORY GROUND BLENDED SPACE TYPE SERVICE WATER LOOP,Outlet,1
 Parent Node Connection,STORY GROUND BLENDED SPACE TYPE SERVICE WATER LOOP SUPPLY OUTLET NODE,PLANTLOOP,STORY GROUND BLENDED SPACE TYPE SERVICE WATER LOOP,Sensor,1
 Parent Node Connection,STORY TOP BLENDED SPACE TYPE SERVICE WATER LOOP SUPPLY INLET NODE,PLANTLOOP,STORY TOP BLENDED SPACE TYPE SERVICE WATER LOOP,Inlet,1
 Parent Node Connection,STORY TOP BLENDED SPACE TYPE SERVICE WATER LOOP SUPPLY OUTLET NODE,PLANTLOOP,STORY TOP BLENDED SPACE TYPE SERVICE WATER LOOP,Outlet,1
 Parent Node Connection,STORY TOP BLENDED SPACE TYPE SERVICE WATER LOOP DEMAND INLET NODE,PLANTLOOP,STORY TOP BLENDED SPACE TYPE SERVICE WATER LOOP,Inlet,1
 Parent Node Connection,STORY TOP BLENDED SPACE TYPE SERVICE WATER LOOP DEMAND OUTLET NODE,PLANTLOOP,STORY TOP BLENDED SPACE TYPE SERVICE WATER LOOP,Outlet,1
 Parent Node Connection,STORY TOP BLENDED SPACE TYPE SERVICE WATER LOOP SUPPLY OUTLET NODE,PLANTLOOP,STORY TOP BLENDED SPACE TYPE SERVICE WATER LOOP,Sensor,1
! ===============================================================
! <#Non-Parent Node Connections>,<Number of Non-Parent Node Connections>
 #Non-Parent Node Connections,97
! <Non-Parent Node Connection>,<Node Name>,<Node ObjectType>,<Node ObjectName>,<Node ConnectionType>,<Node FluidStream>
 Non-Parent Node Connection,BUILDING STORY 1 THERMALZONE ZONE AIR NODE,ZONEHVAC:EQUIPMENTCONNECTIONS,BUILDING STORY 1 THERMALZONE,ZoneNode,1
 Non-Parent Node Connection,NODE 2,ZONEHVAC:EQUIPMENTCONNECTIONS,BUILDING STORY 1 THERMALZONE,ZoneInlet,1
 Non-Parent Node Connection,NODE 6,ZONEHVAC:EQUIPMENTCONNECTIONS,BUILDING STORY 1 THERMALZONE,ZoneInlet,1
 Non-Parent Node Connection,NODE 1,ZONEHVAC:EQUIPMENTCONNECTIONS,BUILDING STORY 1 THERMALZONE,ZoneExhaust,1
 Non-Parent Node Connection,NODE 5,ZONEHVAC:EQUIPMENTCONNECTIONS,BUILDING STORY 1 THERMALZONE,ZoneExhaust,1
 Non-Parent Node Connection,BUILDING STORY 1 THERMALZONE 1 ZONE AIR NODE,ZONEHVAC:EQUIPMENTCONNECTIONS,BUILDING STORY 1 THERMALZONE 1,ZoneNode,1
 Non-Parent Node Connection,BUILDING STORY 1 THERMALZONE 2 ZONE AIR NODE,ZONEHVAC:EQUIPMENTCONNECTIONS,BUILDING STORY 1 THERMALZONE 2,ZoneNode,1
 Non-Parent Node Connection,BUILDING STORY 1 THERMALZONE 3 ZONE AIR NODE,ZONEHVAC:EQUIPMENTCONNECTIONS,BUILDING STORY 1 THERMALZONE 3,ZoneNode,1
 Non-Parent Node Connection,BUILDING STORY 1 THERMALZONE 4 ZONE AIR NODE,ZONEHVAC:EQUIPMENTCONNECTIONS,BUILDING STORY 1 THERMALZONE 4,ZoneNode,1
 Non-Parent Node Connection,BUILDING STORY 2 THERMALZONE ZONE AIR NODE,ZONEHVAC:EQUIPMENTCONNECTIONS,BUILDING STORY 2 THERMALZONE,ZoneNode,1
 Non-Parent Node Connection,BUILDING STORY 2 THERMALZONE 1 ZONE AIR NODE,ZONEHVAC:EQUIPMENTCONNECTIONS,BUILDING STORY 2 THERMALZONE 1,ZoneNode,1
 Non-Parent Node Connection,BUILDING STORY 2 THERMALZONE 2 ZONE AIR NODE,ZONEHVAC:EQUIPMENTCONNECTIONS,BUILDING STORY 2 THERMALZONE 2,ZoneNode,1
 Non-Parent Node Connection,BUILDING STORY 2 THERMALZONE 3 ZONE AIR NODE,ZONEHVAC:EQUIPMENTCONNECTIONS,BUILDING STORY 2 THERMALZONE 3,ZoneNode,1
 Non-Parent Node Connection,BUILDING STORY 2 THERMALZONE 4 ZONE AIR NODE,ZONEHVAC:EQUIPMENTCONNECTIONS,BUILDING STORY 2 THERMALZONE 4,ZoneNode,1
 Non-Parent Node Connection,NODE 1,COIL:WATERHEATING:AIRTOWATERHEATPUMP:PUMPED,800GAL HEAT PUMP WATER HEATER - 320KBTU/HR COIL,Inlet,1
 Non-Parent Node Connection,800GAL HEAT PUMP WATER HEATER - 320KBTU/HR_TYPE_B EVAP OUTLET - FAN INLET,COIL:WATERHEATING:AIRTOWATERHEATPUMP:PUMPED,800GAL HEAT PUMP WATER HEATER - 320KBTU/HR COIL,Outlet,1
 Non-Parent Node Connection,MODEL OUTDOOR AIR NODE,OUTDOORAIR:NODE,OutdoorAir:Node,OutdoorAir,1
 Non-Parent Node Connection,800GAL HEAT PUMP WATER HEATER - 320KBTU/HR_TYPE_B TANK OUTLET - CONDENSER INLET,COIL:WATERHEATING:AIRTOWATERHEATPUMP:PUMPED,800GAL HEAT PUMP WATER HEATER - 320KBTU/HR COIL,Inlet,2
 Non-Parent Node Connection,800GAL HEAT PUMP WATER HEATER - 320KBTU/HR_TYPE_B CONDENSER OUTLET - TANK INLET,COIL:WATERHEATING:AIRTOWATERHEATPUMP:PUMPED,800GAL HEAT PUMP WATER HEATER - 320KBTU/HR COIL,Outlet,2
 Non-Parent Node Connection,NODE 5,COIL:WATERHEATING:AIRTOWATERHEATPUMP:PUMPED,800GAL HEAT PUMP WATER HEATER - 320KBTU/HR COIL 1,Inlet,1
 Non-Parent Node Connection,800GAL HEAT PUMP WATER HEATER - 320KBTU/HR_TYPE_B 1 EVAP OUTLET - FAN INLET,COIL:WATERHEATING:AIRTOWATERHEATPUMP:PUMPED,800GAL HEAT PUMP WATER HEATER - 320KBTU/HR COIL 1,Outlet,1
 Non-Parent Node Connection,800GAL HEAT PUMP WATER HEATER - 320KBTU/HR_TYPE_B 1 TANK OUTLET - CONDENSER INLET,COIL:WATERHEATING:AIRTOWATERHEATPUMP:PUMPED,800GAL HEAT PUMP WATER HEATER - 320KBTU/HR COIL 1,Inlet,2
 Non-Parent Node Connection,800GAL HEAT PUMP WATER HEATER - 320KBTU/HR_TYPE_B 1 CONDENSER OUTLET - TANK INLET,COIL:WATERHEATING:AIRTOWATERHEATPUMP:PUMPED,800GAL HEAT PUMP WATER HEATER - 320KBTU/HR COIL 1,Outlet,2
 Non-Parent Node Connection,800GAL HEAT PUMP WATER HEATER - 320KBTU/HR_TYPE_B EVAP OUTLET - FAN INLET,FAN:ONOFF,800GAL HEAT PUMP WATER HEATER - 320KBTU/HR FAN,Inlet,1
 Non-Parent Node Connection,NODE 2,FAN:ONOFF,800GAL HEAT PUMP WATER HEATER - 320KBTU/HR FAN,Outlet,1
 Non-Parent Node Connection,800GAL HEAT PUMP WATER HEATER - 320KBTU/HR_TYPE_B 1 EVAP OUTLET - FAN INLET,FAN:ONOFF,800GAL HEAT PUMP WATER HEATER - 320KBTU/HR FAN 1,Inlet,1
 Non-Parent Node Connection,NODE 6,FAN:ONOFF,800GAL HEAT PUMP WATER HEATER - 320KBTU/HR FAN 1,Outlet,1
 Non-Parent Node Connection,NODE 3,WATERHEATER:MIXED,800GAL HEAT PUMP WATER HEATER - 320KBTU/HR TANK,Inlet,1
 Non-Parent Node Connection,NODE 4,WATERHEATER:MIXED,800GAL HEAT PUMP WATER HEATER - 320KBTU/HR TANK,Outlet,1
 Non-Parent Node Connection,800GAL HEAT PUMP WATER HEATER - 320KBTU/HR_TYPE_B CONDENSER OUTLET - TANK INLET,WATERHEATER:MIXED,800GAL HEAT PUMP WATER HEATER - 320KBTU/HR TANK,Inlet,2
 Non-Parent Node Connection,800GAL HEAT PUMP WATER HEATER - 320KBTU/HR_TYPE_B TANK OUTLET - CONDENSER INLET,WATERHEATER:MIXED,800GAL HEAT PUMP WATER HEATER - 320KBTU/HR TANK,Outlet,2
 Non-Parent Node Connection,NODE 7,WATERHEATER:MIXED,800GAL HEAT PUMP WATER HEATER - 320KBTU/HR TANK 1,Inlet,1
 Non-Parent Node Connection,NODE 8,WATERHEATER:MIXED,800GAL HEAT PUMP WATER HEATER - 320KBTU/HR TANK 1,Outlet,1
 Non-Parent Node Connection,800GAL HEAT PUMP WATER HEATER - 320KBTU/HR_TYPE_B 1 CONDENSER OUTLET - TANK INLET,WATERHEATER:MIXED,800GAL HEAT PUMP WATER HEATER - 320KBTU/HR TANK 1,Inlet,2
 Non-Parent Node Connection,800GAL HEAT PUMP WATER HEATER - 320KBTU/HR_TYPE_B 1 TANK OUTLET - CONDENSER INLET,WATERHEATER:MIXED,800GAL HEAT PUMP WATER HEATER - 320KBTU/HR TANK 1,Outlet,2
 Non-Parent Node Connection,STORY GROUND BLENDED SPACE TYPE SERVICE WATER LOOP SUPPLY OUTLET NODE,SETPOINTMANAGER:SCHEDULED,SERVICE HOT WATER SETPOINT MANAGER,Setpoint,1
 Non-Parent Node Connection,STORY TOP BLENDED SPACE TYPE SERVICE WATER LOOP SUPPLY OUTLET NODE,SETPOINTMANAGER:SCHEDULED,SERVICE HOT WATER SETPOINT MANAGER 1,Setpoint,1
 Non-Parent Node Connection,STORY GROUND BLENDED SPACE TYPE SERVICE WATER LOOP DEMAND INLET NODE,PIPE:INDOOR,STORY GROUND BLENDED SPACE TYPE SERVICE WATER LOOP PIPE 320.0FT,Inlet,1
 Non-Parent Node Connection,STORY GROUND BLENDED SPACE TYPE SERVICE WATER LOOP PIPE 320.0FT OUTLET WATER NODE,PIPE:INDOOR,STORY GROUND BLENDED SPACE TYPE SERVICE WATER LOOP PIPE 320.0FT,Outlet,1
 Non-Parent Node Connection,STORY TOP BLENDED SPACE TYPE SERVICE WATER LOOP DEMAND INLET NODE,PIPE:INDOOR,STORY TOP BLENDED SPACE TYPE SERVICE WATER LOOP PIPE 320.0FT,Inlet,1
 Non-Parent Node Connection,STORY TOP BLENDED SPACE TYPE SERVICE WATER LOOP PIPE 320.0FT OUTLET WATER NODE,PIPE:INDOOR,STORY TOP BLENDED SPACE TYPE SERVICE WATER LOOP PIPE 320.0FT,Outlet,1
 Non-Parent Node Connection,PIPE ADIABATIC 1 INLET WATER NODE,PIPE:ADIABATIC,PIPE ADIABATIC 1,Inlet,1
 Non-Parent Node Connection,PIPE ADIABATIC 1 OUTLET WATER NODE,PIPE:ADIABATIC,PIPE ADIABATIC 1,Outlet,1
 Non-Parent Node Connection,PIPE ADIABATIC 3 INLET WATER NODE,PIPE:ADIABATIC,PIPE ADIABATIC 3,Inlet,1
 Non-Parent Node Connection,STORY GROUND BLENDED SPACE TYPE SERVICE WATER LOOP SUPPLY OUTLET NODE,PIPE:ADIABATIC,PIPE ADIABATIC 3,Outlet,1
 Non-Parent Node Connection,PIPE ADIABATIC 2 INLET WATER NODE,PIPE:ADIABATIC,PIPE ADIABATIC 2,Inlet,1
 Non-Parent Node Connection,PIPE ADIABATIC 2 OUTLET WATER NODE,PIPE:ADIABATIC,PIPE ADIABATIC 2,Outlet,1
 Non-Parent Node Connection,STORY GROUND BLENDED SPACE TYPE SERVICE WATER LOOP DEMAND BYPASS PIPE INLET NODE,PIPE:ADIABATIC,STORY GROUND BLENDED SPACE TYPE SERVICE WATER LOOP DEMAND BYPASS PIPE,Inlet,1
 Non-Parent Node Connection,STORY GROUND BLENDED SPACE TYPE SERVICE WATER LOOP DEMAND BYPASS PIPE OUTLET NODE,PIPE:ADIABATIC,STORY GROUND BLENDED SPACE TYPE SERVICE WATER LOOP DEMAND BYPASS PIPE,Outlet,1
 Non-Parent Node Connection,PIPE ADIABATIC 4 INLET WATER NODE,PIPE:ADIABATIC,PIPE ADIABATIC 4,Inlet,1
 Non-Parent Node Connection,STORY GROUND BLENDED SPACE TYPE SERVICE WATER LOOP DEMAND OUTLET NODE,PIPE:ADIABATIC,PIPE ADIABATIC 4,Outlet,1
 Non-Parent Node Connection,PIPE ADIABATIC 5 INLET WATER NODE,PIPE:ADIABATIC,PIPE ADIABATIC 5,Inlet,1
 Non-Parent Node Connection,PIPE ADIABATIC 5 OUTLET WATER NODE,PIPE:ADIABATIC,PIPE ADIABATIC 5,Outlet,1
 Non-Parent Node Connection,PIPE ADIABATIC 7 INLET WATER NODE,PIPE:ADIABATIC,PIPE ADIABATIC 7,Inlet,1
 Non-Parent Node Connection,STORY TOP BLENDED SPACE TYPE SERVICE WATER LOOP SUPPLY OUTLET NODE,PIPE:ADIABATIC,PIPE ADIABATIC 7,Outlet,1
 Non-Parent Node Connection,PIPE ADIABATIC 6 INLET WATER NODE,PIPE:ADIABATIC,PIPE ADIABATIC 6,Inlet,1
 Non-Parent Node Connection,PIPE ADIABATIC 6 OUTLET WATER NODE,PIPE:ADIABATIC,PIPE ADIABATIC 6,Outlet,1
 Non-Parent Node Connection,STORY TOP BLENDED SPACE TYPE SERVICE WATER LOOP DEMAND BYPASS PIPE INLET NODE,PIPE:ADIABATIC,STORY TOP BLENDED SPACE TYPE SERVICE WATER LOOP DEMAND BYPASS PIPE,Inlet,1
 Non-Parent Node Connection,STORY TOP BLENDED SPACE TYPE SERVICE WATER LOOP DEMAND BYPASS PIPE OUTLET NODE,PIPE:ADIABATIC,STORY TOP BLENDED SPACE TYPE SERVICE WATER LOOP DEMAND BYPASS PIPE,Outlet,1
 Non-Parent Node Connection,PIPE ADIABATIC 8 INLET WATER NODE,PIPE:ADIABATIC,PIPE ADIABATIC 8,Inlet,1
 Non-Parent Node Connection,STORY TOP BLENDED SPACE TYPE SERVICE WATER LOOP DEMAND OUTLET NODE,PIPE:ADIABATIC,PIPE ADIABATIC 8,Outlet,1
 Non-Parent Node Connection,STORY GROUND BLENDED SPACE TYPE 16 UNITS WUC 0.93GPM AT 110F INLET WATER NODE,WATERUSE:CONNECTIONS,STORY GROUND BLENDED SPACE TYPE 16 UNITS WUC 0.93GPM AT 110F,Inlet,1
 Non-Parent Node Connection,STORY GROUND BLENDED SPACE TYPE 16 UNITS WUC 0.93GPM AT 110F OUTLET WATER NODE,WATERUSE:CONNECTIONS,STORY GROUND BLENDED SPACE TYPE 16 UNITS WUC 0.93GPM AT 110F,Outlet,1
 Non-Parent Node Connection,STORY TOP BLENDED SPACE TYPE 16 UNITS WUC 0.93GPM AT 110F INLET WATER NODE,WATERUSE:CONNECTIONS,STORY TOP BLENDED SPACE TYPE 16 UNITS WUC 0.93GPM AT 110F,Inlet,1
 Non-Parent Node Connection,STORY TOP BLENDED SPACE TYPE 16 UNITS WUC 0.93GPM AT 110F OUTLET WATER NODE,WATERUSE:CONNECTIONS,STORY TOP BLENDED SPACE TYPE 16 UNITS WUC 0.93GPM AT 110F,Outlet,1
 Non-Parent Node Connection,STORY GROUND BLENDED SPACE TYPE SERVICE WATER LOOP PIPE 320.0FT OUTLET WATER NODE,CONNECTOR:SPLITTER,STORY GROUND BLENDED SPACE TYPE SERVICE WATER LOOP DEMAND SPLITTER,Inlet,1
 Non-Parent Node Connection,PIPE ADIABATIC 2 INLET WATER NODE,CONNECTOR:SPLITTER,STORY GROUND BLENDED SPACE TYPE SERVICE WATER LOOP DEMAND SPLITTER,Outlet,1
 Non-Parent Node Connection,STORY GROUND BLENDED SPACE TYPE 16 UNITS WUC 0.93GPM AT 110F INLET WATER NODE,CONNECTOR:SPLITTER,STORY GROUND BLENDED SPACE TYPE SERVICE WATER LOOP DEMAND SPLITTER,Outlet,1
 Non-Parent Node Connection,STORY GROUND BLENDED SPACE TYPE SERVICE WATER LOOP DEMAND BYPASS PIPE INLET NODE,CONNECTOR:SPLITTER,STORY GROUND BLENDED SPACE TYPE SERVICE WATER LOOP DEMAND SPLITTER,Outlet,1
 Non-Parent Node Connection,PIPE ADIABATIC 4 INLET WATER NODE,CONNECTOR:MIXER,STORY GROUND BLENDED SPACE TYPE SERVICE WATER LOOP DEMAND MIXER,Outlet,1
 Non-Parent Node Connection,PIPE ADIABATIC 2 OUTLET WATER NODE,CONNECTOR:MIXER,STORY GROUND BLENDED SPACE TYPE SERVICE WATER LOOP DEMAND MIXER,Inlet,1
 Non-Parent Node Connection,STORY GROUND BLENDED SPACE TYPE 16 UNITS WUC 0.93GPM AT 110F OUTLET WATER NODE,CONNECTOR:MIXER,STORY GROUND BLENDED SPACE TYPE SERVICE WATER LOOP DEMAND MIXER,Inlet,1
 Non-Parent Node Connection,STORY GROUND BLENDED SPACE TYPE SERVICE WATER LOOP DEMAND BYPASS PIPE OUTLET NODE,CONNECTOR:MIXER,STORY GROUND BLENDED SPACE TYPE SERVICE WATER LOOP DEMAND MIXER,Inlet,1
 Non-Parent Node Connection,STORY GROUND BLENDED SPACE TYPE SERVICE WATER LOOP WATER MAINS PRESSURE DRIVEN OUTLET WATER NODE,CONNECTOR:SPLITTER,STORY GROUND BLENDED SPACE TYPE SERVICE WATER LOOP SUPPLY SPLITTER,Inlet,1
 Non-Parent Node Connection,PIPE ADIABATIC 1 INLET WATER NODE,CONNECTOR:SPLITTER,STORY GROUND BLENDED SPACE TYPE SERVICE WATER LOOP SUPPLY SPLITTER,Outlet,1
 Non-Parent Node Connection,NODE 7,CONNECTOR:SPLITTER,STORY GROUND BLENDED SPACE TYPE SERVICE WATER LOOP SUPPLY SPLITTER,Outlet,1
 Non-Parent Node Connection,PIPE ADIABATIC 3 INLET WATER NODE,CONNECTOR:MIXER,STORY GROUND BLENDED SPACE TYPE SERVICE WATER LOOP SUPPLY MIXER,Outlet,1
 Non-Parent Node Connection,PIPE ADIABATIC 1 OUTLET WATER NODE,CONNECTOR:MIXER,STORY GROUND BLENDED SPACE TYPE SERVICE WATER LOOP SUPPLY MIXER,Inlet,1
 Non-Parent Node Connection,NODE 8,CONNECTOR:MIXER,STORY GROUND BLENDED SPACE TYPE SERVICE WATER LOOP SUPPLY MIXER,Inlet,1
 Non-Parent Node Connection,STORY TOP BLENDED SPACE TYPE SERVICE WATER LOOP PIPE 320.0FT OUTLET WATER NODE,CONNECTOR:SPLITTER,STORY TOP BLENDED SPACE TYPE SERVICE WATER LOOP DEMAND SPLITTER,Inlet,1
 Non-Parent Node Connection,PIPE ADIABATIC 6 INLET WATER NODE,CONNECTOR:SPLITTER,STORY TOP BLENDED SPACE TYPE SERVICE WATER LOOP DEMAND SPLITTER,Outlet,1
 Non-Parent Node Connection,STORY TOP BLENDED SPACE TYPE 16 UNITS WUC 0.93GPM AT 110F INLET WATER NODE,CONNECTOR:SPLITTER,STORY TOP BLENDED SPACE TYPE SERVICE WATER LOOP DEMAND SPLITTER,Outlet,1
 Non-Parent Node Connection,STORY TOP BLENDED SPACE TYPE SERVICE WATER LOOP DEMAND BYPASS PIPE INLET NODE,CONNECTOR:SPLITTER,STORY TOP BLENDED SPACE TYPE SERVICE WATER LOOP DEMAND SPLITTER,Outlet,1
 Non-Parent Node Connection,PIPE ADIABATIC 8 INLET WATER NODE,CONNECTOR:MIXER,STORY TOP BLENDED SPACE TYPE SERVICE WATER LOOP DEMAND MIXER,Outlet,1
 Non-Parent Node Connection,PIPE ADIABATIC 6 OUTLET WATER NODE,CONNECTOR:MIXER,STORY TOP BLENDED SPACE TYPE SERVICE WATER LOOP DEMAND MIXER,Inlet,1
 Non-Parent Node Connection,STORY TOP BLENDED SPACE TYPE 16 UNITS WUC 0.93GPM AT 110F OUTLET WATER NODE,CONNECTOR:MIXER,STORY TOP BLENDED SPACE TYPE SERVICE WATER LOOP DEMAND MIXER,Inlet,1
 Non-Parent Node Connection,STORY TOP BLENDED SPACE TYPE SERVICE WATER LOOP DEMAND BYPASS PIPE OUTLET NODE,CONNECTOR:MIXER,STORY TOP BLENDED SPACE TYPE SERVICE WATER LOOP DEMAND MIXER,Inlet,1
 Non-Parent Node Connection,STORY TOP BLENDED SPACE TYPE SERVICE WATER LOOP WATER MAINS PRESSURE DRIVEN OUTLET WATER NODE,CONNECTOR:SPLITTER,STORY TOP BLENDED SPACE TYPE SERVICE WATER LOOP SUPPLY SPLITTER,Inlet,1
 Non-Parent Node Connection,PIPE ADIABATIC 5 INLET WATER NODE,CONNECTOR:SPLITTER,STORY TOP BLENDED SPACE TYPE SERVICE WATER LOOP SUPPLY SPLITTER,Outlet,1
 Non-Parent Node Connection,NODE 3,CONNECTOR:SPLITTER,STORY TOP BLENDED SPACE TYPE SERVICE WATER LOOP SUPPLY SPLITTER,Outlet,1
 Non-Parent Node Connection,PIPE ADIABATIC 7 INLET WATER NODE,CONNECTOR:MIXER,STORY TOP BLENDED SPACE TYPE SERVICE WATER LOOP SUPPLY MIXER,Outlet,1
 Non-Parent Node Connection,PIPE ADIABATIC 5 OUTLET WATER NODE,CONNECTOR:MIXER,STORY TOP BLENDED SPACE TYPE SERVICE WATER LOOP SUPPLY MIXER,Inlet,1
 Non-Parent Node Connection,NODE 4,CONNECTOR:MIXER,STORY TOP BLENDED SPACE TYPE SERVICE WATER LOOP SUPPLY MIXER,Inlet,1
 Non-Parent Node Connection,STORY GROUND BLENDED SPACE TYPE SERVICE WATER LOOP SUPPLY INLET NODE,PUMP:VARIABLESPEED,STORY GROUND BLENDED SPACE TYPE SERVICE WATER LOOP WATER MAINS PRESSURE DRIVEN,Inlet,1
 Non-Parent Node Connection,STORY GROUND BLENDED SPACE TYPE SERVICE WATER LOOP WATER MAINS PRESSURE DRIVEN OUTLET WATER NODE,PUMP:VARIABLESPEED,STORY GROUND BLENDED SPACE TYPE SERVICE WATER LOOP WATER MAINS PRESSURE DRIVEN,Outlet,1
 Non-Parent Node Connection,STORY TOP BLENDED SPACE TYPE SERVICE WATER LOOP SUPPLY INLET NODE,PUMP:VARIABLESPEED,STORY TOP BLENDED SPACE TYPE SERVICE WATER LOOP WATER MAINS PRESSURE DRIVEN,Inlet,1
 Non-Parent Node Connection,STORY TOP BLENDED SPACE TYPE SERVICE WATER LOOP WATER MAINS PRESSURE DRIVEN OUTLET WATER NODE,PUMP:VARIABLESPEED,STORY TOP BLENDED SPACE TYPE SERVICE WATER LOOP WATER MAINS PRESSURE DRIVEN,Outlet,1
