! Program Version,EnergyPlus, Version 22.1.0-08bd19528a, YMD=2022.02.07 07:52,
! Output:Meter Objects (applicable to this run)
Output:Meter,Electricity:Facility,hourly; !- [J]
Output:Meter:Cumulative,Electricity:Facility,hourly; !- [J]
Output:Meter,Electricity:Building,hourly; !- [J]
Output:Meter:Cumulative,Electricity:Building,hourly; !- [J]
Output:Meter,Electricity:Zone:WAINRIGHT_TZ,hourly; !- [J]
Output:Meter:Cumulative,Electricity:Zone:WAINRIGHT_TZ,hourly; !- [J]
Output:Meter,Electricity:SpaceType:GENERAL,hourly; !- [J]
Output:Meter:Cumulative,Electricity:SpaceType:GENERAL,hourly; !- [J]
Output:Meter,InteriorLights:Electricity,hourly; !- [J]
Output:Meter:Cumulative,InteriorLights:Electricity,hourly; !- [J]
Output:Meter,InteriorLights:Electricity:Zone:WAINRIGHT_TZ,hourly; !- [J]
Output:Meter:Cumulative,InteriorLights:Electricity:Zone:WAINRIGHT_TZ,hourly; !- [J]
Output:Meter,InteriorLights:Electricity:SpaceType:GENERAL,hourly; !- [J]
Output:Meter:Cumulative,InteriorLights:Electricity:SpaceType:GENERAL,hourly; !- [J]
Output:Meter,General:InteriorLights:Electricity,hourly; !- [J]
Output:Meter:Cumulative,General:InteriorLights:Electricity,hourly; !- [J]
Output:Meter,General:InteriorLights:Electricity:Zone:WAINRIGHT_TZ,hourly; !- [J]
Output:Meter:Cumulative,General:InteriorLights:Electricity:Zone:WAINRIGHT_TZ,hourly; !- [J]
Output:Meter,General:InteriorLights:Electricity:SpaceType:GENERAL,hourly; !- [J]
Output:Meter:Cumulative,General:InteriorLights:Electricity:SpaceType:GENERAL,hourly; !- [J]
Output:Meter,InteriorEquipment:Electricity,hourly; !- [J]
Output:Meter:Cumulative,InteriorEquipment:Electricity,hourly; !- [J]
Output:Meter,InteriorEquipment:Electricity:Zone:WAINRIGHT_TZ,hourly; !- [J]
Output:Meter:Cumulative,InteriorEquipment:Electricity:Zone:WAINRIGHT_TZ,hourly; !- [J]
Output:Meter,InteriorEquipment:Electricity:SpaceType:GENERAL,hourly; !- [J]
Output:Meter:Cumulative,InteriorEquipment:Electricity:SpaceType:GENERAL,hourly; !- [J]
Output:Meter,General:InteriorEquipment:Electricity,hourly; !- [J]
Output:Meter:Cumulative,General:InteriorEquipment:Electricity,hourly; !- [J]
Output:Meter,General:InteriorEquipment:Electricity:Zone:WAINRIGHT_TZ,hourly; !- [J]
Output:Meter:Cumulative,General:InteriorEquipment:Electricity:Zone:WAINRIGHT_TZ,hourly; !- [J]
Output:Meter,General:InteriorEquipment:Electricity:SpaceType:GENERAL,hourly; !- [J]
Output:Meter:Cumulative,General:InteriorEquipment:Electricity:SpaceType:GENERAL,hourly; !- [J]
Output:Meter,ElecStorageHeaterCharge:InteriorEquipment:Electricity,hourly; !- [J]
Output:Meter:Cumulative,ElecStorageHeaterCharge:InteriorEquipment:Electricity,hourly; !- [J]
Output:Meter,ElecStorageHeaterCharge:InteriorEquipment:Electricity:Zone:WAINRIGHT_TZ,hourly; !- [J]
Output:Meter:Cumulative,ElecStorageHeaterCharge:InteriorEquipment:Electricity:Zone:WAINRIGHT_TZ,hourly; !- [J]
Output:Meter,ElecStorageHeaterCharge:InteriorEquipment:Electricity:SpaceType:GENERAL,hourly; !- [J]
Output:Meter:Cumulative,ElecStorageHeaterCharge:InteriorEquipment:Electricity:SpaceType:GENERAL,hourly; !- [J]
Output:Meter,Fans:Electricity,hourly; !- [J]
Output:Meter:Cumulative,Fans:Electricity,hourly; !- [J]
Output:Meter,Fans:Electricity:Zone:WAINRIGHT_TZ,hourly; !- [J]
Output:Meter:Cumulative,Fans:Electricity:Zone:WAINRIGHT_TZ,hourly; !- [J]
Output:Meter,Ventilation (simple):Fans:Electricity,hourly; !- [J]
Output:Meter:Cumulative,Ventilation (simple):Fans:Electricity,hourly; !- [J]
Output:Meter,Ventilation (simple):Fans:Electricity:Zone:WAINRIGHT_TZ,hourly; !- [J]
Output:Meter:Cumulative,Ventilation (simple):Fans:Electricity:Zone:WAINRIGHT_TZ,hourly; !- [J]
Output:Meter,EnergyTransfer:Facility,hourly; !- [J]
Output:Meter:Cumulative,EnergyTransfer:Facility,hourly; !- [J]
Output:Meter,EnergyTransfer:Building,hourly; !- [J]
Output:Meter:Cumulative,EnergyTransfer:Building,hourly; !- [J]
Output:Meter,EnergyTransfer:Zone:WAINRIGHT_TZ,hourly; !- [J]
Output:Meter:Cumulative,EnergyTransfer:Zone:WAINRIGHT_TZ,hourly; !- [J]
Output:Meter,Heating:EnergyTransfer,hourly; !- [J]
Output:Meter:Cumulative,Heating:EnergyTransfer,hourly; !- [J]
Output:Meter,Heating:EnergyTransfer:Zone:WAINRIGHT_TZ,hourly; !- [J]
Output:Meter:Cumulative,Heating:EnergyTransfer:Zone:WAINRIGHT_TZ,hourly; !- [J]
Output:Meter,General:Heating:EnergyTransfer,hourly; !- [J]
Output:Meter:Cumulative,General:Heating:EnergyTransfer,hourly; !- [J]
Output:Meter,General:Heating:EnergyTransfer:Zone:WAINRIGHT_TZ,hourly; !- [J]
Output:Meter:Cumulative,General:Heating:EnergyTransfer:Zone:WAINRIGHT_TZ,hourly; !- [J]
Output:Meter,Cooling:EnergyTransfer,hourly; !- [J]
Output:Meter:Cumulative,Cooling:EnergyTransfer,hourly; !- [J]
Output:Meter,Cooling:EnergyTransfer:Zone:WAINRIGHT_TZ,hourly; !- [J]
Output:Meter:Cumulative,Cooling:EnergyTransfer:Zone:WAINRIGHT_TZ,hourly; !- [J]
Output:Meter,General:Cooling:EnergyTransfer,hourly; !- [J]
Output:Meter:Cumulative,General:Cooling:EnergyTransfer,hourly; !- [J]
Output:Meter,General:Cooling:EnergyTransfer:Zone:WAINRIGHT_TZ,hourly; !- [J]
Output:Meter:Cumulative,General:Cooling:EnergyTransfer:Zone:WAINRIGHT_TZ,hourly; !- [J]
Output:Meter,PlantLoopHeatingDemand:Facility,hourly; !- [J]
Output:Meter:Cumulative,PlantLoopHeatingDemand:Facility,hourly; !- [J]
Output:Meter,PlantLoopHeatingDemand:Plant,hourly; !- [J]
Output:Meter:Cumulative,PlantLoopHeatingDemand:Plant,hourly; !- [J]
Output:Meter,WaterSystems:PlantLoopHeatingDemand,hourly; !- [J]
Output:Meter:Cumulative,WaterSystems:PlantLoopHeatingDemand,hourly; !- [J]
Output:Meter,General:WaterSystems:PlantLoopHeatingDemand,hourly; !- [J]
Output:Meter:Cumulative,General:WaterSystems:PlantLoopHeatingDemand,hourly; !- [J]
Output:Meter,ElectricityPurchased:Facility,hourly; !- [J]
Output:Meter:Cumulative,ElectricityPurchased:Facility,hourly; !- [J]
Output:Meter,ElectricityPurchased:Plant,hourly; !- [J]
Output:Meter:Cumulative,ElectricityPurchased:Plant,hourly; !- [J]
Output:Meter,Cogeneration:ElectricityPurchased,hourly; !- [J]
Output:Meter:Cumulative,Cogeneration:ElectricityPurchased,hourly; !- [J]
Output:Meter,General:Cogeneration:ElectricityPurchased,hourly; !- [J]
Output:Meter:Cumulative,General:Cogeneration:ElectricityPurchased,hourly; !- [J]
Output:Meter,ElectricitySurplusSold:Facility,hourly; !- [J]
Output:Meter:Cumulative,ElectricitySurplusSold:Facility,hourly; !- [J]
Output:Meter,ElectricitySurplusSold:Plant,hourly; !- [J]
Output:Meter:Cumulative,ElectricitySurplusSold:Plant,hourly; !- [J]
Output:Meter,Cogeneration:ElectricitySurplusSold,hourly; !- [J]
Output:Meter:Cumulative,Cogeneration:ElectricitySurplusSold,hourly; !- [J]
Output:Meter,General:Cogeneration:ElectricitySurplusSold,hourly; !- [J]
Output:Meter:Cumulative,General:Cogeneration:ElectricitySurplusSold,hourly; !- [J]
Output:Meter,ElectricityNet:Facility,hourly; !- [J]
Output:Meter:Cumulative,ElectricityNet:Facility,hourly; !- [J]
Output:Meter,ElectricityNet:Plant,hourly; !- [J]
Output:Meter:Cumulative,ElectricityNet:Plant,hourly; !- [J]
Output:Meter,Cogeneration:ElectricityNet,hourly; !- [J]
Output:Meter:Cumulative,Cogeneration:ElectricityNet,hourly; !- [J]
Output:Meter,General:Cogeneration:ElectricityNet,hourly; !- [J]
Output:Meter:Cumulative,General:Cogeneration:ElectricityNet,hourly; !- [J]
Output:Meter,Electricity:HVAC,hourly; !- [J]
Output:Meter:Cumulative,Electricity:HVAC,hourly; !- [J]
Output:Meter,General:Fans:Electricity,hourly; !- [J]
Output:Meter:Cumulative,General:Fans:Electricity,hourly; !- [J]
Output:Meter,EnergyTransfer:HVAC,hourly; !- [J]
Output:Meter:Cumulative,EnergyTransfer:HVAC,hourly; !- [J]
Output:Meter,HeatingCoils:EnergyTransfer,hourly; !- [J]
Output:Meter:Cumulative,HeatingCoils:EnergyTransfer,hourly; !- [J]
Output:Meter,FuelOilNo1:Facility,hourly; !- [J]
Output:Meter:Cumulative,FuelOilNo1:Facility,hourly; !- [J]
Output:Meter,FuelOilNo1:HVAC,hourly; !- [J]
Output:Meter:Cumulative,FuelOilNo1:HVAC,hourly; !- [J]
Output:Meter,Heating:FuelOilNo1,hourly; !- [J]
Output:Meter:Cumulative,Heating:FuelOilNo1,hourly; !- [J]
Output:Meter,General:Heating:FuelOilNo1,hourly; !- [J]
Output:Meter:Cumulative,General:Heating:FuelOilNo1,hourly; !- [J]
Output:Meter,Heating:Electricity,hourly; !- [J]
Output:Meter:Cumulative,Heating:Electricity,hourly; !- [J]
Output:Meter,General:Heating:Electricity,hourly; !- [J]
Output:Meter:Cumulative,General:Heating:Electricity,hourly; !- [J]
Output:Meter,ExteriorEquipment:Electricity,hourly; !- [J]
Output:Meter:Cumulative,ExteriorEquipment:Electricity,hourly; !- [J]
Output:Meter,General:ExteriorEquipment:Electricity,hourly; !- [J]
Output:Meter:Cumulative,General:ExteriorEquipment:Electricity,hourly; !- [J]
Output:Meter,Water:Facility,hourly; !- [m3]
Output:Meter:Cumulative,Water:Facility,hourly; !- [m3]
Output:Meter,Water:Plant,hourly; !- [m3]
Output:Meter:Cumulative,Water:Plant,hourly; !- [m3]
Output:Meter,WaterSystems:Water,hourly; !- [m3]
Output:Meter:Cumulative,WaterSystems:Water,hourly; !- [m3]
Output:Meter,General:WaterSystems:Water,hourly; !- [m3]
Output:Meter:Cumulative,General:WaterSystems:Water,hourly; !- [m3]
Output:Meter,MainsWater:Facility,hourly; !- [m3]
Output:Meter:Cumulative,MainsWater:Facility,hourly; !- [m3]
Output:Meter,MainsWater:Plant,hourly; !- [m3]
Output:Meter:Cumulative,MainsWater:Plant,hourly; !- [m3]
Output:Meter,WaterSystems:MainsWater,hourly; !- [m3]
Output:Meter:Cumulative,WaterSystems:MainsWater,hourly; !- [m3]
Output:Meter,General:WaterSystems:MainsWater,hourly; !- [m3]
Output:Meter:Cumulative,General:WaterSystems:MainsWater,hourly; !- [m3]
Output:Meter,EnergyTransfer:Plant,hourly; !- [J]
Output:Meter:Cumulative,EnergyTransfer:Plant,hourly; !- [J]
Output:Meter,WaterSystems:EnergyTransfer,hourly; !- [J]
Output:Meter:Cumulative,WaterSystems:EnergyTransfer,hourly; !- [J]
Output:Meter,General:WaterSystems:EnergyTransfer,hourly; !- [J]
Output:Meter:Cumulative,General:WaterSystems:EnergyTransfer,hourly; !- [J]
Output:Meter,Electricity:Plant,hourly; !- [J]
Output:Meter:Cumulative,Electricity:Plant,hourly; !- [J]
Output:Meter,WaterSystems:Electricity,hourly; !- [J]
Output:Meter:Cumulative,WaterSystems:Electricity,hourly; !- [J]
Output:Meter,General:WaterSystems:Electricity,hourly; !- [J]
Output:Meter:Cumulative,General:WaterSystems:Electricity,hourly; !- [J]
Output:Meter,Pumps:Electricity,hourly; !- [J]
Output:Meter:Cumulative,Pumps:Electricity,hourly; !- [J]
Output:Meter,General:Pumps:Electricity,hourly; !- [J]
Output:Meter:Cumulative,General:Pumps:Electricity,hourly; !- [J]
Output:Meter,Carbon Equivalent:Facility,hourly; !- [kg]
Output:Meter:Cumulative,Carbon Equivalent:Facility,hourly; !- [kg]
Output:Meter,CarbonEquivalentEmissions:Carbon Equivalent,hourly; !- [kg]
Output:Meter:Cumulative,CarbonEquivalentEmissions:Carbon Equivalent,hourly; !- [kg]
Output:Meter,CUSTOMCHARGEMETER,hourly; !- [J]
Output:Meter:Cumulative,CUSTOMCHARGEMETER,hourly; !- [J]
Output:Meter,CUSTOMDISCHARGEMETER,hourly; !- [J]
Output:Meter:Cumulative,CUSTOMDISCHARGEMETER,hourly; !- [J]
Output:Meter,METERDECREMENTWORKS,hourly; !- [J]
Output:Meter:Cumulative,METERDECREMENTWORKS,hourly; !- [J]
