Program Version,EnergyPlus, Version 9.6.0-ec13cca9f6, YMD=2021.12.27 23:49
! <Version>, Version ID
 Version, 9.5
! <Timesteps per Hour>, #TimeSteps, Minutes per TimeStep {minutes}
 Timesteps per Hour,  1, 60
! <System Convergence Limits>, Minimum System TimeStep {minutes}, Max HVAC Iterations, Minimum Plant Iterations, Maximum Plant Iterations
 System Convergence Limits, 1, 20, 2, 8
! <Simulation Control>, Do Zone Sizing, Do System Sizing, Do Plant Sizing, Do Design Days, Do Weather Simulation, Do HVAC Sizing Simulation
 Simulation Control, Yes, No, Yes, Yes, No, Yes
! <Performance Precision Tradeoffs>, Use Coil Direct Simulation, Zone Radiant Exchange Algorithm, Override Mode, Number of Timestep In Hour, Force Euler Method, Minimum Number of Warmup Days, Force Suppress All Begin Environment Resets, Minimum System Timestep, MaxZoneTempDiff, MaxAllowedDelTemp
 Performance Precision Tradeoffs, No, ScriptF, Normal, 1, No, 1, No, 1.0, 0.300, 2.0000E-003
! <Output Reporting Tolerances>, Tolerance for Time Heating Setpoint Not Met, Tolerance for Zone Cooling Setpoint Not Met Time
 Output Reporting Tolerances, 0.556, 0.556, 
! <Site:GroundTemperature:BuildingSurface>,Jan{C},Feb{C},Mar{C},Apr{C},May{C},Jun{C},Jul{C},Aug{C},Sep{C},Oct{C},Nov{C},Dec{C}
 Site:GroundTemperature:BuildingSurface,  18.00,  18.00,  18.00,  18.00,  18.00,  18.00,  18.00,  18.00,  18.00,  18.00,  18.00,  18.00
! <Site:GroundTemperature:FCfactorMethod>,Jan{C},Feb{C},Mar{C},Apr{C},May{C},Jun{C},Jul{C},Aug{C},Sep{C},Oct{C},Nov{C},Dec{C}
 Site:GroundTemperature:FCfactorMethod,  18.10,  13.60,  12.60,  12.50,  13.90,  13.80,  13.90,  16.80,  19.40,  21.00,  20.00,  20.60
! <Site:GroundTemperature:Shallow>,Jan{C},Feb{C},Mar{C},Apr{C},May{C},Jun{C},Jul{C},Aug{C},Sep{C},Oct{C},Nov{C},Dec{C}
 Site:GroundTemperature:Shallow,  13.00,  13.00,  13.00,  13.00,  13.00,  13.00,  13.00,  13.00,  13.00,  13.00,  13.00,  13.00
! <Site:GroundTemperature:Deep>,Jan{C},Feb{C},Mar{C},Apr{C},May{C},Jun{C},Jul{C},Aug{C},Sep{C},Oct{C},Nov{C},Dec{C}
 Site:GroundTemperature:Deep,  16.00,  16.00,  16.00,  16.00,  16.00,  16.00,  16.00,  16.00,  16.00,  16.00,  16.00,  16.00
! <Site:GroundReflectance>,Jan{dimensionless},Feb{dimensionless},Mar{dimensionless},Apr{dimensionless},May{dimensionless},Jun{dimensionless},Jul{dimensionless},Aug{dimensionless},Sep{dimensionless},Oct{dimensionless},Nov{dimensionless},Dec{dimensionless}
 Site:GroundReflectance,  0.20,  0.20,  0.20,  0.20,  0.20,  0.20,  0.20,  0.20,  0.20,  0.20,  0.20,  0.20
! <Site:GroundReflectance:SnowModifier>, Normal, Daylighting {dimensionless}
 Site:GroundReflectance:SnowModifier,   1.000,   1.000
! <Site:GroundReflectance:Snow>,Jan{dimensionless},Feb{dimensionless},Mar{dimensionless},Apr{dimensionless},May{dimensionless},Jun{dimensionless},Jul{dimensionless},Aug{dimensionless},Sep{dimensionless},Oct{dimensionless},Nov{dimensionless},Dec{dimensionless}
 Site:GroundReflectance:Snow,  0.20,  0.20,  0.20,  0.20,  0.20,  0.20,  0.20,  0.20,  0.20,  0.20,  0.20,  0.20
! <Site:GroundReflectance:Snow:Daylighting>,Jan{dimensionless},Feb{dimensionless},Mar{dimensionless},Apr{dimensionless},May{dimensionless},Jun{dimensionless},Jul{dimensionless},Aug{dimensionless},Sep{dimensionless},Oct{dimensionless},Nov{dimensionless},Dec{dimensionless}
 Site:GroundReflectance:Snow:Daylighting,  0.20,  0.20,  0.20,  0.20,  0.20,  0.20,  0.20,  0.20,  0.20,  0.20,  0.20,  0.20
! <Environment:Weather Station>,Wind Sensor Height Above Ground {m},Wind Speed Profile Exponent {},Wind Speed Profile Boundary Layer Thickness {m},Air Temperature Sensor Height Above Ground {m},Wind Speed Modifier Coefficient-Internal,Temperature Modifier Coefficient-Internal
Environment:Weather Station,10.000,0.140,270.000,1.500,1.586,9.750E-003
! <Site:Location>, Location Name, Latitude {N+/S- Deg}, Longitude {E+/W- Deg},  Time Zone Number {GMT+/-}, Elevation {m},  Standard Pressure at Elevation {Pa}, Standard RhoAir at Elevation
Site:Location,Long Beach Daugherty Fld CA USA TMY3 WMO#=722970,33.83,-118.17,-8.00,8.00,101229,1.2032
! <Site Water Mains Temperature Information>,Calculation Method{},Water Mains Temperature Schedule Name{},Annual Average Outdoor Air Temperature{C},Maximum Difference In Monthly Average Outdoor Air Temperatures{deltaC},Fixed Default Water Mains Temperature{C}
Site Water Mains Temperature Information,Correlation,NA,17.48,8.80,NA
! <Building Information>, Building Name,North Axis {deg},Terrain,  Loads Convergence Tolerance Value,Temperature Convergence Tolerance Value,  Solar Distribution,Maximum Number of Warmup Days,Minimum Number of Warmup Days
 Building Information,Keelson Ln 17301-b,0.000,City,4.00000E-002,0.40000,FullExterior,25,1
! <Inside Convection Algorithm>, Algorithm {Simple | TARP | CeilingDiffuser | AdaptiveConvectionAlgorithm}
Inside Convection Algorithm,TARP
! <Outside Convection Algorithm>, Algorithm {SimpleCombined | TARP | MoWitt | DOE-2 | AdaptiveConvectionAlgorithm}
Outside Convection Algorithm,DOE-2
! <Sky Radiance Distribution>, Value {Anisotropic}
Sky Radiance Distribution,Anisotropic
! <Zone Air Solution Algorithm>, Value {ThirdOrderBackwardDifference | AnalyticalSolution | EulerMethod}
 Zone Air Solution Algorithm, ThirdOrderBackwardDifference
! <Zone Air Carbon Dioxide Balance Simulation>, Simulation {Yes/No}, Carbon Dioxide Concentration
 Zone Air Carbon Dioxide Balance Simulation, No,N/A
! <Zone Air Generic Contaminant Balance Simulation>, Simulation {Yes/No}, Generic Contaminant Concentration
 Zone Air Generic Contaminant Balance Simulation, No,N/A
! <Zone Air Mass Flow Balance Simulation>, Enforce Mass Balance, Adjust Zone Mixing and Return {AdjustMixingOnly | AdjustReturnOnly | AdjustMixingThenReturn | AdjustReturnThenMixing | None}, Adjust Zone Infiltration {AddInfiltration | AdjustInfiltration | None}, Infiltration Zones {MixingSourceZonesOnly | AllZones}
 Zone Air Mass Flow Balance Simulation, No,N/A,N/A,N/A
! <HVACSystemRootFindingAlgorithm>, Value {RegulaFalsi | Bisection | BisectionThenRegulaFalsi | RegulaFalsiThenBisection}
 HVACSystemRootFindingAlgorithm, RegulaFalsi
! <Environment:Site Atmospheric Variation>,Wind Speed Profile Exponent {},Wind Speed Profile Boundary Layer Thickness {m},Air Temperature Gradient Coefficient {K/m}
Environment:Site Atmospheric Variation,0.330,460.000,6.500000E-003
! <Surface Geometry>,Starting Corner,Vertex Input Direction,Coordinate System,Daylight Reference Point Coordinate System,Rectangular (Simple) Surface Coordinate System
 Surface Geometry,UpperLeftCorner,Counterclockwise,RelativeCoordinateSystem,RelativeCoordinateSystem,RelativeToZoneOrigin
! <Surface Heat Transfer Algorithm>, Value {CTF - ConductionTransferFunction | EMPD - MoisturePenetrationDepthConductionTransferFunction | CondFD - ConductionFiniteDifference | HAMT - CombinedHeatAndMoistureFiniteElement} - Description,Inside Surface Max Temperature Limit{C}, Surface Convection Coefficient Lower Limit {W/m2-K}, Surface Convection Coefficient Upper Limit {W/m2-K}
Surface Heat Transfer Algorithm, CTF - ConductionTransferFunction,200,0.10,1000.0
! <Shading Summary>, Number of Fixed Detached Shades, Number of Building Detached Shades, Number of Attached Shades
 Shading Summary,0,608,0
! <Zone Summary>, Number of Zones, Number of Zone Surfaces, Number of SubSurfaces
 Zone Summary,10,153,8
! <Zone Information>,Zone Name,North Axis {deg},Origin X-Coordinate {m},Origin Y-Coordinate {m},Origin Z-Coordinate {m},Centroid X-Coordinate {m},Centroid Y-Coordinate {m},Centroid Z-Coordinate {m},Type,Zone Multiplier,Zone List Multiplier,Minimum X {m},Maximum X {m},Minimum Y {m},Maximum Y {m},Minimum Z {m},Maximum Z {m},Ceiling Height {m},Volume {m3},Zone Inside Convection Algorithm {Simple-Detailed-CeilingDiffuser-TrombeWall},Zone Outside Convection Algorithm {Simple-Detailed-Tarp-MoWitt-DOE-2-BLAST}, Floor Area {m2},Exterior Gross Wall Area {m2},Exterior Net Wall Area {m2},Exterior Window Area {m2}, Number of Surfaces, Number of SubSurfaces, Number of Shading SubSurfaces,  Part of Total Building Area
 Zone Information, BUILDING STORY 1 THERMALZONE,0.0,0.00,0.00,0.00,12.06,28.95,1.80,1,1,1,2.83,21.29,2.83,55.08,0.00,3.60,3.60,3472.61,TARP,DOE-2,964.61,0.00,0.00,0.00,6,0,0,Yes
 Zone Information, BUILDING STORY 1 THERMALZONE 1,0.0,0.00,0.00,0.00,12.06,1.29,1.80,1,1,1,0.00,24.12,0.00,2.83,0.00,3.60,3.60,216.77,TARP,DOE-2,60.21,86.82,60.78,26.05,6,1,0,Yes
 Zone Information, BUILDING STORY 1 THERMALZONE 2,0.0,0.00,0.00,0.00,1.36,28.95,1.80,1,1,1,-3.32E-010,2.83,0.00,57.91,0.00,3.60,3.60,560.86,TARP,DOE-2,155.79,208.48,145.93,62.54,6,1,0,Yes
 Zone Information, BUILDING STORY 1 THERMALZONE 3,0.0,0.00,0.00,0.00,12.06,56.62,1.80,1,1,1,-3.32E-010,24.12,55.08,57.91,0.00,3.60,3.60,216.77,TARP,DOE-2,60.21,86.82,60.78,26.05,6,1,0,Yes
 Zone Information, BUILDING STORY 1 THERMALZONE 4,0.0,0.00,0.00,0.00,22.75,28.95,1.80,1,1,1,21.29,24.12,3.04E-005,57.91,0.00,3.60,3.60,560.86,TARP,DOE-2,155.79,208.48,145.93,62.54,6,1,0,Yes
 Zone Information, BUILDING STORY 2 THERMALZONE,0.0,0.00,0.00,0.00,12.06,28.95,5.40,1,1,1,2.83,21.29,2.83,55.08,3.60,7.20,3.60,3472.61,TARP,DOE-2,964.61,0.00,0.00,0.00,6,0,0,Yes
 Zone Information, BUILDING STORY 2 THERMALZONE 1,0.0,0.00,0.00,0.00,12.06,1.29,5.40,1,1,1,0.00,24.12,0.00,2.83,3.60,7.20,3.60,216.77,TARP,DOE-2,60.21,86.82,60.78,26.05,6,1,0,Yes
 Zone Information, BUILDING STORY 2 THERMALZONE 2,0.0,0.00,0.00,0.00,1.36,28.95,5.40,1,1,1,-3.32E-010,2.83,0.00,57.91,3.60,7.20,3.60,560.86,TARP,DOE-2,155.79,208.48,145.93,62.54,6,1,0,Yes
 Zone Information, BUILDING STORY 2 THERMALZONE 3,0.0,0.00,0.00,0.00,12.06,56.62,5.40,1,1,1,-3.32E-010,24.12,55.08,57.91,3.60,7.20,3.60,216.77,TARP,DOE-2,60.21,86.82,60.78,26.05,6,1,0,Yes
 Zone Information, BUILDING STORY 2 THERMALZONE 4,0.0,0.00,0.00,0.00,22.75,28.95,5.40,1,1,1,21.29,24.12,3.04E-005,57.91,3.60,7.20,3.60,560.86,TARP,DOE-2,155.79,208.48,145.93,62.54,6,1,0,Yes
! <Zone Internal Gains Nominal>,Zone Name, Floor Area {m2},# Occupants,Area per Occupant {m2/person},Occupant per Area {person/m2},Interior Lighting {W/m2},Electric Load {W/m2},Gas Load {W/m2},Other Load {W/m2},Hot Water Eq {W/m2},Steam Equipment {W/m2},Sum Loads per Area {W/m2},Outdoor Controlled Baseboard Heat
 Zone Internal Gains Nominal, BUILDING STORY 1 THERMALZONE,964.61,33.4,28.862,3.465E-002,1.336,5.290,0.000,0.000,0.000,0.000,6.626,No
 Zone Internal Gains Nominal, BUILDING STORY 1 THERMALZONE 1,60.21,2.1,28.862,3.465E-002,1.336,5.290,0.000,0.000,0.000,0.000,6.626,No
 Zone Internal Gains Nominal, BUILDING STORY 1 THERMALZONE 2,155.79,5.4,28.862,3.465E-002,1.336,5.290,0.000,0.000,0.000,0.000,6.626,No
 Zone Internal Gains Nominal, BUILDING STORY 1 THERMALZONE 3,60.21,2.1,28.862,3.465E-002,1.336,5.290,0.000,0.000,0.000,0.000,6.626,No
 Zone Internal Gains Nominal, BUILDING STORY 1 THERMALZONE 4,155.79,5.4,28.862,3.465E-002,1.336,5.290,0.000,0.000,0.000,0.000,6.626,No
 Zone Internal Gains Nominal, BUILDING STORY 2 THERMALZONE,964.61,27.3,35.324,2.831E-002,0.970,5.982,0.000,0.000,0.000,0.000,6.952,No
 Zone Internal Gains Nominal, BUILDING STORY 2 THERMALZONE 1,60.21,1.7,35.324,2.831E-002,0.970,5.982,0.000,0.000,0.000,0.000,6.952,No
 Zone Internal Gains Nominal, BUILDING STORY 2 THERMALZONE 2,155.79,4.4,35.324,2.831E-002,0.970,5.982,0.000,0.000,0.000,0.000,6.952,No
 Zone Internal Gains Nominal, BUILDING STORY 2 THERMALZONE 3,60.21,1.7,35.324,2.831E-002,0.970,5.982,0.000,0.000,0.000,0.000,6.952,No
 Zone Internal Gains Nominal, BUILDING STORY 2 THERMALZONE 4,155.79,4.4,35.324,2.831E-002,0.970,5.982,0.000,0.000,0.000,0.000,6.952,No
! <People Internal Gains Nominal>,Name,Schedule Name,Zone Name,Zone Floor Area {m2},# Zone Occupants,Number of People {},People/Floor Area {person/m2},Floor Area per person {m2/person},Fraction Radiant,Fraction Convected,Sensible Fraction Calculation,Activity level,ASHRAE 55 Warnings,Carbon Dioxide Generation Rate,Nominal Minimum Number of People,Nominal Maximum Number of People
 People Internal Gains Nominal, BUILDING STORY 1 THERMALZONE MFM RESLIVING PEOPLE 1,MIDRISEAPARTMENT APARTMENT OCC,BUILDING STORY 1 THERMALZONE,964.61,33.4,23.4,2.421E-002,41.300,0.300,0.700,AutoCalculate,MIDRISEAPARTMENT ACTIVITY,No,3.8200E-008,6,23
 People Internal Gains Nominal, BUILDING STORY 1 THERMALZONE 1 MFM RESLIVING PEOPLE 1,MIDRISEAPARTMENT APARTMENT OCC,BUILDING STORY 1 THERMALZONE 1,60.21,2.1,1.5,2.421E-002,41.300,0.300,0.700,AutoCalculate,MIDRISEAPARTMENT ACTIVITY,No,3.8200E-008,0,1
 People Internal Gains Nominal, BUILDING STORY 1 THERMALZONE 2 MFM RESLIVING PEOPLE 1,MIDRISEAPARTMENT APARTMENT OCC,BUILDING STORY 1 THERMALZONE 2,155.79,5.4,3.8,2.421E-002,41.300,0.300,0.700,AutoCalculate,MIDRISEAPARTMENT ACTIVITY,No,3.8200E-008,1,4
 People Internal Gains Nominal, BUILDING STORY 1 THERMALZONE 3 MFM RESLIVING PEOPLE 1,MIDRISEAPARTMENT APARTMENT OCC,BUILDING STORY 1 THERMALZONE 3,60.21,2.1,1.5,2.421E-002,41.300,0.300,0.700,AutoCalculate,MIDRISEAPARTMENT ACTIVITY,No,3.8200E-008,0,1
 People Internal Gains Nominal, BUILDING STORY 1 THERMALZONE 4 MFM RESLIVING PEOPLE 1,MIDRISEAPARTMENT APARTMENT OCC,BUILDING STORY 1 THERMALZONE 4,155.79,5.4,3.8,2.421E-002,41.300,0.300,0.700,AutoCalculate,MIDRISEAPARTMENT ACTIVITY,No,3.8200E-008,1,4
 People Internal Gains Nominal, BUILDING STORY 1 THERMALZONE MFM RESPUBLICAREA PEOPLE 1,D_MFM_MFPUB_OCCUP_YR,BUILDING STORY 1 THERMALZONE,964.61,33.4,10.1,1.043E-002,95.839,0.300,0.700,AutoCalculate,DEER ACTIVITY 147W/PERSON,No,3.8200E-008,0,10
 People Internal Gains Nominal, BUILDING STORY 1 THERMALZONE 1 MFM RESPUBLICAREA PEOPLE 1,D_MFM_MFPUB_OCCUP_YR,BUILDING STORY 1 THERMALZONE 1,60.21,2.1,0.6,1.043E-002,95.839,0.300,0.700,AutoCalculate,DEER ACTIVITY 147W/PERSON,No,3.8200E-008,0,1
 People Internal Gains Nominal, BUILDING STORY 1 THERMALZONE 2 MFM RESPUBLICAREA PEOPLE 1,D_MFM_MFPUB_OCCUP_YR,BUILDING STORY 1 THERMALZONE 2,155.79,5.4,1.6,1.043E-002,95.839,0.300,0.700,AutoCalculate,DEER ACTIVITY 147W/PERSON,No,3.8200E-008,0,2
 People Internal Gains Nominal, BUILDING STORY 1 THERMALZONE 3 MFM RESPUBLICAREA PEOPLE 1,D_MFM_MFPUB_OCCUP_YR,BUILDING STORY 1 THERMALZONE 3,60.21,2.1,0.6,1.043E-002,95.839,0.300,0.700,AutoCalculate,DEER ACTIVITY 147W/PERSON,No,3.8200E-008,0,1
 People Internal Gains Nominal, BUILDING STORY 1 THERMALZONE 4 MFM RESPUBLICAREA PEOPLE 1,D_MFM_MFPUB_OCCUP_YR,BUILDING STORY 1 THERMALZONE 4,155.79,5.4,1.6,1.043E-002,95.839,0.300,0.700,AutoCalculate,DEER ACTIVITY 147W/PERSON,No,3.8200E-008,0,2
 People Internal Gains Nominal, BUILDING STORY 2 THERMALZONE MFM RESLIVING PEOPLE 2,MIDRISEAPARTMENT APARTMENT OCC,BUILDING STORY 2 THERMALZONE,964.61,27.3,27.3,2.831E-002,35.324,0.300,0.700,AutoCalculate,MIDRISEAPARTMENT ACTIVITY,No,3.8200E-008,7,27
 People Internal Gains Nominal, BUILDING STORY 2 THERMALZONE 1 MFM RESLIVING PEOPLE 2,MIDRISEAPARTMENT APARTMENT OCC,BUILDING STORY 2 THERMALZONE 1,60.21,1.7,1.7,2.831E-002,35.324,0.300,0.700,AutoCalculate,MIDRISEAPARTMENT ACTIVITY,No,3.8200E-008,0,2
 People Internal Gains Nominal, BUILDING STORY 2 THERMALZONE 2 MFM RESLIVING PEOPLE 2,MIDRISEAPARTMENT APARTMENT OCC,BUILDING STORY 2 THERMALZONE 2,155.79,4.4,4.4,2.831E-002,35.324,0.300,0.700,AutoCalculate,MIDRISEAPARTMENT ACTIVITY,No,3.8200E-008,1,4
 People Internal Gains Nominal, BUILDING STORY 2 THERMALZONE 3 MFM RESLIVING PEOPLE 2,MIDRISEAPARTMENT APARTMENT OCC,BUILDING STORY 2 THERMALZONE 3,60.21,1.7,1.7,2.831E-002,35.324,0.300,0.700,AutoCalculate,MIDRISEAPARTMENT ACTIVITY,No,3.8200E-008,0,2
 People Internal Gains Nominal, BUILDING STORY 2 THERMALZONE 4 MFM RESLIVING PEOPLE 2,MIDRISEAPARTMENT APARTMENT OCC,BUILDING STORY 2 THERMALZONE 4,155.79,4.4,4.4,2.831E-002,35.324,0.300,0.700,AutoCalculate,MIDRISEAPARTMENT ACTIVITY,No,3.8200E-008,1,4
! <Lights Internal Gains Nominal>,Name,Schedule Name,Zone Name,Zone Floor Area {m2},# Zone Occupants,Lighting Level {W},Lights/Floor Area {W/m2},Lights per person {W/person},Fraction Return Air,Fraction Radiant,Fraction Short Wave,Fraction Convected,Fraction Replaceable,End-Use Category,Nominal Minimum Lighting Level {W},Nominal Maximum Lighting Level {W}
 Lights Internal Gains Nominal, BUILDING STORY 1 THERMALZONE MFM RESLIVING LIGHTS 1,MIDRISEAPARTMENT APARTMENT LIGHT,BUILDING STORY 1 THERMALZONE,964.61,33.4,800.066,0.829,23.939,0.000,0.000,0.000,1.000,0.000,General,53.604,800.066
 Lights Internal Gains Nominal, BUILDING STORY 1 THERMALZONE 1 MFM RESLIVING LIGHTS 1,MIDRISEAPARTMENT APARTMENT LIGHT,BUILDING STORY 1 THERMALZONE 1,60.21,2.1,49.943,0.829,23.939,0.000,0.000,0.000,1.000,0.000,General,3.346,49.943
 Lights Internal Gains Nominal, BUILDING STORY 1 THERMALZONE 2 MFM RESLIVING LIGHTS 1,MIDRISEAPARTMENT APARTMENT LIGHT,BUILDING STORY 1 THERMALZONE 2,155.79,5.4,129.218,0.829,23.939,0.000,0.000,0.000,1.000,0.000,General,8.658,129.218
 Lights Internal Gains Nominal, BUILDING STORY 1 THERMALZONE 3 MFM RESLIVING LIGHTS 1,MIDRISEAPARTMENT APARTMENT LIGHT,BUILDING STORY 1 THERMALZONE 3,60.21,2.1,49.942,0.829,23.939,0.000,0.000,0.000,1.000,0.000,General,3.346,49.942
 Lights Internal Gains Nominal, BUILDING STORY 1 THERMALZONE 4 MFM RESLIVING LIGHTS 1,MIDRISEAPARTMENT APARTMENT LIGHT,BUILDING STORY 1 THERMALZONE 4,155.79,5.4,129.218,0.829,23.939,0.000,0.000,0.000,1.000,0.000,General,8.658,129.218
 Lights Internal Gains Nominal, BUILDING STORY 1 THERMALZONE MFM RESPUBLICAREA LIGHTS 1,D_MFM_MFPUB_ILIT_YR,BUILDING STORY 1 THERMALZONE,964.61,33.4,488.712,0.507,14.623,0.000,0.000,0.000,1.000,0.000,General,0.000,488.712
 Lights Internal Gains Nominal, BUILDING STORY 1 THERMALZONE 1 MFM RESPUBLICAREA LIGHTS 1,D_MFM_MFPUB_ILIT_YR,BUILDING STORY 1 THERMALZONE 1,60.21,2.1,30.507,0.507,14.623,0.000,0.000,0.000,1.000,0.000,General,0.000,30.507
 Lights Internal Gains Nominal, BUILDING STORY 1 THERMALZONE 2 MFM RESPUBLICAREA LIGHTS 1,D_MFM_MFPUB_ILIT_YR,BUILDING STORY 1 THERMALZONE 2,155.79,5.4,78.931,0.507,14.623,0.000,0.000,0.000,1.000,0.000,General,0.000,78.931
 Lights Internal Gains Nominal, BUILDING STORY 1 THERMALZONE 3 MFM RESPUBLICAREA LIGHTS 1,D_MFM_MFPUB_ILIT_YR,BUILDING STORY 1 THERMALZONE 3,60.21,2.1,30.507,0.507,14.623,0.000,0.000,0.000,1.000,0.000,General,0.000,30.507
 Lights Internal Gains Nominal, BUILDING STORY 1 THERMALZONE 4 MFM RESPUBLICAREA LIGHTS 1,D_MFM_MFPUB_ILIT_YR,BUILDING STORY 1 THERMALZONE 4,155.79,5.4,78.931,0.507,14.623,0.000,0.000,0.000,1.000,0.000,General,0.000,78.931
 Lights Internal Gains Nominal, BUILDING STORY 2 THERMALZONE MFM RESLIVING LIGHTS 2,MIDRISEAPARTMENT APARTMENT LIGHT,BUILDING STORY 2 THERMALZONE,964.61,27.3,935.402,0.970,34.255,0.000,0.000,0.000,1.000,0.000,General,62.672,935.402
 Lights Internal Gains Nominal, BUILDING STORY 2 THERMALZONE 1 MFM RESLIVING LIGHTS 2,MIDRISEAPARTMENT APARTMENT LIGHT,BUILDING STORY 2 THERMALZONE 1,60.21,1.7,58.391,0.970,34.255,0.000,0.000,0.000,1.000,0.000,General,3.912,58.391
 Lights Internal Gains Nominal, BUILDING STORY 2 THERMALZONE 2 MFM RESLIVING LIGHTS 2,MIDRISEAPARTMENT APARTMENT LIGHT,BUILDING STORY 2 THERMALZONE 2,155.79,4.4,151.076,0.970,34.255,0.000,0.000,0.000,1.000,0.000,General,10.122,151.076
 Lights Internal Gains Nominal, BUILDING STORY 2 THERMALZONE 3 MFM RESLIVING LIGHTS 2,MIDRISEAPARTMENT APARTMENT LIGHT,BUILDING STORY 2 THERMALZONE 3,60.21,1.7,58.390,0.970,34.255,0.000,0.000,0.000,1.000,0.000,General,3.912,58.390
 Lights Internal Gains Nominal, BUILDING STORY 2 THERMALZONE 4 MFM RESLIVING LIGHTS 2,MIDRISEAPARTMENT APARTMENT LIGHT,BUILDING STORY 2 THERMALZONE 4,155.79,4.4,151.076,0.970,34.255,0.000,0.000,0.000,1.000,0.000,General,10.122,151.076
! <ElectricEquipment Internal Gains Nominal>,Name,Schedule Name,Zone Name,Zone Floor Area {m2},# Zone Occupants,Equipment Level {W},Equipment/Floor Area {W/m2},Equipment per person {W/person},Fraction Latent,Fraction Radiant,Fraction Lost,Fraction Convected,End-Use SubCategory,Nominal Minimum Equipment Level {W},Nominal Maximum Equipment Level {W}
 ElectricEquipment Internal Gains Nominal, BUILDING STORY 1 THERMALZONE MFM RESLIVING ELEC EQUIP 1,APARTMENTMIDRISE EQP_APT_SCH,BUILDING STORY 1 THERMALZONE,964.61,33.4,4935.593,5.117,147.677,0.000,0.500,0.000,0.500,General,1875.525,4935.593
 ElectricEquipment Internal Gains Nominal, BUILDING STORY 1 THERMALZONE 1 MFM RESLIVING ELEC EQUIP 1,APARTMENTMIDRISE EQP_APT_SCH,BUILDING STORY 1 THERMALZONE 1,60.21,2.1,308.095,5.117,147.677,0.000,0.500,0.000,0.500,General,117.076,308.095
 ElectricEquipment Internal Gains Nominal, BUILDING STORY 1 THERMALZONE 2 MFM RESLIVING ELEC EQUIP 1,APARTMENTMIDRISE EQP_APT_SCH,BUILDING STORY 1 THERMALZONE 2,155.79,5.4,797.142,5.117,147.677,0.000,0.500,0.000,0.500,General,302.914,797.142
 ElectricEquipment Internal Gains Nominal, BUILDING STORY 1 THERMALZONE 3 MFM RESLIVING ELEC EQUIP 1,APARTMENTMIDRISE EQP_APT_SCH,BUILDING STORY 1 THERMALZONE 3,60.21,2.1,308.093,5.117,147.677,0.000,0.500,0.000,0.500,General,117.075,308.093
 ElectricEquipment Internal Gains Nominal, BUILDING STORY 1 THERMALZONE 4 MFM RESLIVING ELEC EQUIP 1,APARTMENTMIDRISE EQP_APT_SCH,BUILDING STORY 1 THERMALZONE 4,155.79,5.4,797.142,5.117,147.677,0.000,0.500,0.000,0.500,General,302.914,797.142
 ElectricEquipment Internal Gains Nominal, BUILDING STORY 1 THERMALZONE MFM RESPUBLICAREA ELEC EQUIP 1,D_MFM_MFPUB_PLUGS_YR,BUILDING STORY 1 THERMALZONE,964.61,33.4,166.976,0.173,4.996,0.000,0.500,0.000,0.500,General,0.000,166.976
 ElectricEquipment Internal Gains Nominal, BUILDING STORY 1 THERMALZONE 1 MFM RESPUBLICAREA ELEC EQUIP 1,D_MFM_MFPUB_PLUGS_YR,BUILDING STORY 1 THERMALZONE 1,60.21,2.1,10.423,0.173,4.996,0.000,0.500,0.000,0.500,General,0.000,10.423
 ElectricEquipment Internal Gains Nominal, BUILDING STORY 1 THERMALZONE 2 MFM RESPUBLICAREA ELEC EQUIP 1,D_MFM_MFPUB_PLUGS_YR,BUILDING STORY 1 THERMALZONE 2,155.79,5.4,26.968,0.173,4.996,0.000,0.500,0.000,0.500,General,0.000,26.968
 ElectricEquipment Internal Gains Nominal, BUILDING STORY 1 THERMALZONE 3 MFM RESPUBLICAREA ELEC EQUIP 1,D_MFM_MFPUB_PLUGS_YR,BUILDING STORY 1 THERMALZONE 3,60.21,2.1,10.423,0.173,4.996,0.000,0.500,0.000,0.500,General,0.000,10.423
 ElectricEquipment Internal Gains Nominal, BUILDING STORY 1 THERMALZONE 4 MFM RESPUBLICAREA ELEC EQUIP 1,D_MFM_MFPUB_PLUGS_YR,BUILDING STORY 1 THERMALZONE 4,155.79,5.4,26.968,0.173,4.996,0.000,0.500,0.000,0.500,General,0.000,26.968
 ElectricEquipment Internal Gains Nominal, BUILDING STORY 2 THERMALZONE MFM RESLIVING ELEC EQUIP 2,APARTMENTMIDRISE EQP_APT_SCH,BUILDING STORY 2 THERMALZONE,964.61,27.3,5770.475,5.982,211.316,0.000,0.500,0.000,0.500,General,2192.780,5770.475
 ElectricEquipment Internal Gains Nominal, BUILDING STORY 2 THERMALZONE 1 MFM RESLIVING ELEC EQUIP 2,APARTMENTMIDRISE EQP_APT_SCH,BUILDING STORY 2 THERMALZONE 1,60.21,1.7,360.211,5.982,211.316,0.000,0.500,0.000,0.500,General,136.880,360.211
 ElectricEquipment Internal Gains Nominal, BUILDING STORY 2 THERMALZONE 2 MFM RESLIVING ELEC EQUIP 2,APARTMENTMIDRISE EQP_APT_SCH,BUILDING STORY 2 THERMALZONE 2,155.79,4.4,931.983,5.982,211.316,0.000,0.500,0.000,0.500,General,354.153,931.983
 ElectricEquipment Internal Gains Nominal, BUILDING STORY 2 THERMALZONE 3 MFM RESLIVING ELEC EQUIP 2,APARTMENTMIDRISE EQP_APT_SCH,BUILDING STORY 2 THERMALZONE 3,60.21,1.7,360.209,5.982,211.316,0.000,0.500,0.000,0.500,General,136.879,360.209
 ElectricEquipment Internal Gains Nominal, BUILDING STORY 2 THERMALZONE 4 MFM RESLIVING ELEC EQUIP 2,APARTMENTMIDRISE EQP_APT_SCH,BUILDING STORY 2 THERMALZONE 4,155.79,4.4,931.983,5.982,211.316,0.000,0.500,0.000,0.500,General,354.153,931.983
! <Shadowing/Sun Position Calculations Annual Simulations>, Shading Calculation Method, Shading Calculation Update Frequency Method, Shading Calculation Update Frequency {days}, Maximum Figures in Shadow Overlap Calculations {}, Polygon Clipping Algorithm, Pixel Counting Resolution, Sky Diffuse Modeling Algorithm, Output External Shading Calculation Results, Disable Self-Shading Within Shading Zone Groups, Disable Self-Shading From Shading Zone Groups to Other Zones
Shadowing/Sun Position Calculations Annual Simulations,PolygonClipping,Periodic,20,15000,SutherlandHodgman,512,SimpleSkyDiffuseModeling,No,No,No
! <Water Heater Information>,Type,Name,Volume {m3},Maximum Capacity {W},Standard Rated Recovery Efficiency, Standard Rated Energy Factor
! <Heat Pump Water Heater Information>,Type,Name,Volume {m3},Maximum Capacity {W},Standard Rated Recovery Efficiency,Standard Rated Energy Factor,"DX Coil Total Cooling Rate {W, HPWH Only}"
! <ZoneInfiltration Airflow Stats Nominal>,Name,Schedule Name,Zone Name, Zone Floor Area {m2}, # Zone Occupants,Design Volume Flow Rate {m3/s},Volume Flow Rate/Floor Area {m3/s-m2},Volume Flow Rate/Exterior Surface Area {m3/s-m2},ACH - Air Changes per Hour,Equation A - Constant Term Coefficient {},Equation B - Temperature Term Coefficient {1/C},Equation C - Velocity Term Coefficient {s/m}, Equation D - Velocity Squared Term Coefficient {s2/m2}
 ZoneInfiltration Airflow Stats Nominal, BUILDING STORY 1 THERMALZONE MFM RESLIVING A  - STORY GROUND INFILTRATION,ALWAYS ON DISCRETE,BUILDING STORY 1 THERMALZONE,964.61,33.4,0.000,0.000,N/A,0.000,0.000,0.000,0.224,0.000
 ZoneInfiltration Airflow Stats Nominal, BUILDING STORY 1 THERMALZONE 1 MFM RESLIVING A  - STORY GROUND INFILTRATION,ALWAYS ON DISCRETE,BUILDING STORY 1 THERMALZONE 1,60.21,2.1,3.680E-003,6.112E-005,4.239E-005,6.112E-002,0.000,0.000,0.224,0.000
 ZoneInfiltration Airflow Stats Nominal, BUILDING STORY 1 THERMALZONE 2 MFM RESLIVING A  - STORY GROUND INFILTRATION,ALWAYS ON DISCRETE,BUILDING STORY 1 THERMALZONE 2,155.79,5.4,8.837E-003,5.673E-005,4.239E-005,5.673E-002,0.000,0.000,0.224,0.000
 ZoneInfiltration Airflow Stats Nominal, BUILDING STORY 1 THERMALZONE 3 MFM RESLIVING A  - STORY GROUND INFILTRATION,ALWAYS ON DISCRETE,BUILDING STORY 1 THERMALZONE 3,60.21,2.1,3.680E-003,6.112E-005,4.239E-005,6.112E-002,0.000,0.000,0.224,0.000
 ZoneInfiltration Airflow Stats Nominal, BUILDING STORY 1 THERMALZONE 4 MFM RESLIVING A  - STORY GROUND INFILTRATION,ALWAYS ON DISCRETE,BUILDING STORY 1 THERMALZONE 4,155.79,5.4,8.837E-003,5.673E-005,4.239E-005,5.673E-002,0.000,0.000,0.224,0.000
 ZoneInfiltration Airflow Stats Nominal, BUILDING STORY 1 THERMALZONE MFM RESLIVING A END_A - STORY GROUND INFILTRATION,ALWAYS ON DISCRETE,BUILDING STORY 1 THERMALZONE,964.61,33.4,0.000,0.000,N/A,0.000,0.000,0.000,0.224,0.000
 ZoneInfiltration Airflow Stats Nominal, BUILDING STORY 1 THERMALZONE 1 MFM RESLIVING A END_A - STORY GROUND INFILTRATION,ALWAYS ON DISCRETE,BUILDING STORY 1 THERMALZONE 1,60.21,2.1,1.011E-003,1.679E-005,1.164E-005,1.679E-002,0.000,0.000,0.224,0.000
 ZoneInfiltration Airflow Stats Nominal, BUILDING STORY 1 THERMALZONE 2 MFM RESLIVING A END_A - STORY GROUND INFILTRATION,ALWAYS ON DISCRETE,BUILDING STORY 1 THERMALZONE 2,155.79,5.4,2.427E-003,1.558E-005,1.164E-005,1.558E-002,0.000,0.000,0.224,0.000
 ZoneInfiltration Airflow Stats Nominal, BUILDING STORY 1 THERMALZONE 3 MFM RESLIVING A END_A - STORY GROUND INFILTRATION,ALWAYS ON DISCRETE,BUILDING STORY 1 THERMALZONE 3,60.21,2.1,1.011E-003,1.679E-005,1.164E-005,1.679E-002,0.000,0.000,0.224,0.000
 ZoneInfiltration Airflow Stats Nominal, BUILDING STORY 1 THERMALZONE 4 MFM RESLIVING A END_A - STORY GROUND INFILTRATION,ALWAYS ON DISCRETE,BUILDING STORY 1 THERMALZONE 4,155.79,5.4,2.427E-003,1.558E-005,1.164E-005,1.558E-002,0.000,0.000,0.224,0.000
 ZoneInfiltration Airflow Stats Nominal, BUILDING STORY 1 THERMALZONE MFM RESLIVING B END_A - STORY GROUND INFILTRATION,ALWAYS ON DISCRETE,BUILDING STORY 1 THERMALZONE,964.61,33.4,0.000,0.000,N/A,0.000,0.000,0.000,0.224,0.000
 ZoneInfiltration Airflow Stats Nominal, BUILDING STORY 1 THERMALZONE 1 MFM RESLIVING B END_A - STORY GROUND INFILTRATION,ALWAYS ON DISCRETE,BUILDING STORY 1 THERMALZONE 1,60.21,2.1,2.485E-003,4.127E-005,2.862E-005,4.127E-002,0.000,0.000,0.224,0.000
 ZoneInfiltration Airflow Stats Nominal, BUILDING STORY 1 THERMALZONE 2 MFM RESLIVING B END_A - STORY GROUND INFILTRATION,ALWAYS ON DISCRETE,BUILDING STORY 1 THERMALZONE 2,155.79,5.4,5.967E-003,3.830E-005,2.862E-005,3.830E-002,0.000,0.000,0.224,0.000
 ZoneInfiltration Airflow Stats Nominal, BUILDING STORY 1 THERMALZONE 3 MFM RESLIVING B END_A - STORY GROUND INFILTRATION,ALWAYS ON DISCRETE,BUILDING STORY 1 THERMALZONE 3,60.21,2.1,2.485E-003,4.127E-005,2.862E-005,4.127E-002,0.000,0.000,0.224,0.000
 ZoneInfiltration Airflow Stats Nominal, BUILDING STORY 1 THERMALZONE 4 MFM RESLIVING B END_A - STORY GROUND INFILTRATION,ALWAYS ON DISCRETE,BUILDING STORY 1 THERMALZONE 4,155.79,5.4,5.967E-003,3.830E-005,2.862E-005,3.830E-002,0.000,0.000,0.224,0.000
 ZoneInfiltration Airflow Stats Nominal, BUILDING STORY 1 THERMALZONE MFM RESLIVING C  - STORY GROUND INFILTRATION,ALWAYS ON DISCRETE,BUILDING STORY 1 THERMALZONE,964.61,33.4,0.000,0.000,N/A,0.000,0.000,0.000,0.224,0.000
 ZoneInfiltration Airflow Stats Nominal, BUILDING STORY 1 THERMALZONE 1 MFM RESLIVING C  - STORY GROUND INFILTRATION,ALWAYS ON DISCRETE,BUILDING STORY 1 THERMALZONE 1,60.21,2.1,3.680E-003,6.112E-005,4.239E-005,6.112E-002,0.000,0.000,0.224,0.000
 ZoneInfiltration Airflow Stats Nominal, BUILDING STORY 1 THERMALZONE 2 MFM RESLIVING C  - STORY GROUND INFILTRATION,ALWAYS ON DISCRETE,BUILDING STORY 1 THERMALZONE 2,155.79,5.4,8.837E-003,5.673E-005,4.239E-005,5.673E-002,0.000,0.000,0.224,0.000
 ZoneInfiltration Airflow Stats Nominal, BUILDING STORY 1 THERMALZONE 3 MFM RESLIVING C  - STORY GROUND INFILTRATION,ALWAYS ON DISCRETE,BUILDING STORY 1 THERMALZONE 3,60.21,2.1,3.680E-003,6.112E-005,4.239E-005,6.112E-002,0.000,0.000,0.224,0.000
 ZoneInfiltration Airflow Stats Nominal, BUILDING STORY 1 THERMALZONE 4 MFM RESLIVING C  - STORY GROUND INFILTRATION,ALWAYS ON DISCRETE,BUILDING STORY 1 THERMALZONE 4,155.79,5.4,8.837E-003,5.673E-005,4.239E-005,5.673E-002,0.000,0.000,0.224,0.000
 ZoneInfiltration Airflow Stats Nominal, BUILDING STORY 1 THERMALZONE MFM RESLIVING C END_A - STORY GROUND INFILTRATION,ALWAYS ON DISCRETE,BUILDING STORY 1 THERMALZONE,964.61,33.4,0.000,0.000,N/A,0.000,0.000,0.000,0.224,0.000
 ZoneInfiltration Airflow Stats Nominal, BUILDING STORY 1 THERMALZONE 1 MFM RESLIVING C END_A - STORY GROUND INFILTRATION,ALWAYS ON DISCRETE,BUILDING STORY 1 THERMALZONE 1,60.21,2.1,1.011E-003,1.679E-005,1.164E-005,1.679E-002,0.000,0.000,0.224,0.000
 ZoneInfiltration Airflow Stats Nominal, BUILDING STORY 1 THERMALZONE 2 MFM RESLIVING C END_A - STORY GROUND INFILTRATION,ALWAYS ON DISCRETE,BUILDING STORY 1 THERMALZONE 2,155.79,5.4,2.427E-003,1.558E-005,1.164E-005,1.558E-002,0.000,0.000,0.224,0.000
 ZoneInfiltration Airflow Stats Nominal, BUILDING STORY 1 THERMALZONE 3 MFM RESLIVING C END_A - STORY GROUND INFILTRATION,ALWAYS ON DISCRETE,BUILDING STORY 1 THERMALZONE 3,60.21,2.1,1.011E-003,1.679E-005,1.164E-005,1.679E-002,0.000,0.000,0.224,0.000
 ZoneInfiltration Airflow Stats Nominal, BUILDING STORY 1 THERMALZONE 4 MFM RESLIVING C END_A - STORY GROUND INFILTRATION,ALWAYS ON DISCRETE,BUILDING STORY 1 THERMALZONE 4,155.79,5.4,2.427E-003,1.558E-005,1.164E-005,1.558E-002,0.000,0.000,0.224,0.000
 ZoneInfiltration Airflow Stats Nominal, BUILDING STORY 1 THERMALZONE MFM RESPUBLICAREA A  - STORY GROUND INFILTRATION,ALWAYS ON DISCRETE,BUILDING STORY 1 THERMALZONE,964.61,33.4,0.000,0.000,N/A,0.000,0.000,0.000,0.224,0.000
 ZoneInfiltration Airflow Stats Nominal, BUILDING STORY 1 THERMALZONE 1 MFM RESPUBLICAREA A  - STORY GROUND INFILTRATION,ALWAYS ON DISCRETE,BUILDING STORY 1 THERMALZONE 1,60.21,2.1,1.213E-003,2.015E-005,1.398E-005,2.015E-002,0.000,0.000,0.224,0.000
 ZoneInfiltration Airflow Stats Nominal, BUILDING STORY 1 THERMALZONE 2 MFM RESPUBLICAREA A  - STORY GROUND INFILTRATION,ALWAYS ON DISCRETE,BUILDING STORY 1 THERMALZONE 2,155.79,5.4,2.914E-003,1.870E-005,1.398E-005,1.870E-002,0.000,0.000,0.224,0.000
 ZoneInfiltration Airflow Stats Nominal, BUILDING STORY 1 THERMALZONE 3 MFM RESPUBLICAREA A  - STORY GROUND INFILTRATION,ALWAYS ON DISCRETE,BUILDING STORY 1 THERMALZONE 3,60.21,2.1,1.213E-003,2.015E-005,1.398E-005,2.015E-002,0.000,0.000,0.224,0.000
 ZoneInfiltration Airflow Stats Nominal, BUILDING STORY 1 THERMALZONE 4 MFM RESPUBLICAREA A  - STORY GROUND INFILTRATION,ALWAYS ON DISCRETE,BUILDING STORY 1 THERMALZONE 4,155.79,5.4,2.914E-003,1.870E-005,1.398E-005,1.870E-002,0.000,0.000,0.224,0.000
 ZoneInfiltration Airflow Stats Nominal, BUILDING STORY 1 THERMALZONE MFM RESPUBLICAREA B  - STORY GROUND INFILTRATION,ALWAYS ON DISCRETE,BUILDING STORY 1 THERMALZONE,964.61,33.4,0.000,0.000,N/A,0.000,0.000,0.000,0.224,0.000
 ZoneInfiltration Airflow Stats Nominal, BUILDING STORY 1 THERMALZONE 1 MFM RESPUBLICAREA B  - STORY GROUND INFILTRATION,ALWAYS ON DISCRETE,BUILDING STORY 1 THERMALZONE 1,60.21,2.1,2.485E-003,4.127E-005,2.862E-005,4.127E-002,0.000,0.000,0.224,0.000
 ZoneInfiltration Airflow Stats Nominal, BUILDING STORY 1 THERMALZONE 2 MFM RESPUBLICAREA B  - STORY GROUND INFILTRATION,ALWAYS ON DISCRETE,BUILDING STORY 1 THERMALZONE 2,155.79,5.4,5.967E-003,3.830E-005,2.862E-005,3.830E-002,0.000,0.000,0.224,0.000
 ZoneInfiltration Airflow Stats Nominal, BUILDING STORY 1 THERMALZONE 3 MFM RESPUBLICAREA B  - STORY GROUND INFILTRATION,ALWAYS ON DISCRETE,BUILDING STORY 1 THERMALZONE 3,60.21,2.1,2.485E-003,4.127E-005,2.862E-005,4.127E-002,0.000,0.000,0.224,0.000
 ZoneInfiltration Airflow Stats Nominal, BUILDING STORY 1 THERMALZONE 4 MFM RESPUBLICAREA B  - STORY GROUND INFILTRATION,ALWAYS ON DISCRETE,BUILDING STORY 1 THERMALZONE 4,155.79,5.4,5.967E-003,3.830E-005,2.862E-005,3.830E-002,0.000,0.000,0.224,0.000
 ZoneInfiltration Airflow Stats Nominal, BUILDING STORY 1 THERMALZONE MFM RESPUBLICAREA C  - STORY GROUND INFILTRATION,ALWAYS ON DISCRETE,BUILDING STORY 1 THERMALZONE,964.61,33.4,0.000,0.000,N/A,0.000,0.000,0.000,0.224,0.000
 ZoneInfiltration Airflow Stats Nominal, BUILDING STORY 1 THERMALZONE 1 MFM RESPUBLICAREA C  - STORY GROUND INFILTRATION,ALWAYS ON DISCRETE,BUILDING STORY 1 THERMALZONE 1,60.21,2.1,1.213E-003,2.015E-005,1.398E-005,2.015E-002,0.000,0.000,0.224,0.000
 ZoneInfiltration Airflow Stats Nominal, BUILDING STORY 1 THERMALZONE 2 MFM RESPUBLICAREA C  - STORY GROUND INFILTRATION,ALWAYS ON DISCRETE,BUILDING STORY 1 THERMALZONE 2,155.79,5.4,2.914E-003,1.870E-005,1.398E-005,1.870E-002,0.000,0.000,0.224,0.000
 ZoneInfiltration Airflow Stats Nominal, BUILDING STORY 1 THERMALZONE 3 MFM RESPUBLICAREA C  - STORY GROUND INFILTRATION,ALWAYS ON DISCRETE,BUILDING STORY 1 THERMALZONE 3,60.21,2.1,1.213E-003,2.015E-005,1.398E-005,2.015E-002,0.000,0.000,0.224,0.000
 ZoneInfiltration Airflow Stats Nominal, BUILDING STORY 1 THERMALZONE 4 MFM RESPUBLICAREA C  - STORY GROUND INFILTRATION,ALWAYS ON DISCRETE,BUILDING STORY 1 THERMALZONE 4,155.79,5.4,2.914E-003,1.870E-005,1.398E-005,1.870E-002,0.000,0.000,0.224,0.000
 ZoneInfiltration Airflow Stats Nominal, BUILDING STORY 2 THERMALZONE MFM RESLIVING A  - STORY TOP INFILTRATION,ALWAYS ON DISCRETE,BUILDING STORY 2 THERMALZONE,964.61,27.3,1.072E-002,1.111E-005,1.111E-005,1.111E-002,0.000,0.000,0.224,0.000
 ZoneInfiltration Airflow Stats Nominal, BUILDING STORY 2 THERMALZONE 1 MFM RESLIVING A  - STORY TOP INFILTRATION,ALWAYS ON DISCRETE,BUILDING STORY 2 THERMALZONE 1,60.21,1.7,1.633E-003,2.713E-005,1.111E-005,2.713E-002,0.000,0.000,0.224,0.000
 ZoneInfiltration Airflow Stats Nominal, BUILDING STORY 2 THERMALZONE 2 MFM RESLIVING A  - STORY TOP INFILTRATION,ALWAYS ON DISCRETE,BUILDING STORY 2 THERMALZONE 2,155.79,4.4,4.046E-003,2.597E-005,1.111E-005,2.597E-002,0.000,0.000,0.224,0.000
 ZoneInfiltration Airflow Stats Nominal, BUILDING STORY 2 THERMALZONE 3 MFM RESLIVING A  - STORY TOP INFILTRATION,ALWAYS ON DISCRETE,BUILDING STORY 2 THERMALZONE 3,60.21,1.7,1.633E-003,2.713E-005,1.111E-005,2.713E-002,0.000,0.000,0.224,0.000
 ZoneInfiltration Airflow Stats Nominal, BUILDING STORY 2 THERMALZONE 4 MFM RESLIVING A  - STORY TOP INFILTRATION,ALWAYS ON DISCRETE,BUILDING STORY 2 THERMALZONE 4,155.79,4.4,4.046E-003,2.597E-005,1.111E-005,2.597E-002,0.000,0.000,0.224,0.000
 ZoneInfiltration Airflow Stats Nominal, BUILDING STORY 2 THERMALZONE MFM RESLIVING A END_A - STORY TOP INFILTRATION,ALWAYS ON DISCRETE,BUILDING STORY 2 THERMALZONE,964.61,27.3,2.789E-003,2.891E-006,2.891E-006,2.891E-003,0.000,0.000,0.224,0.000
 ZoneInfiltration Airflow Stats Nominal, BUILDING STORY 2 THERMALZONE 1 MFM RESLIVING A END_A - STORY TOP INFILTRATION,ALWAYS ON DISCRETE,BUILDING STORY 2 THERMALZONE 1,60.21,1.7,4.251E-004,7.060E-006,2.891E-006,7.060E-003,0.000,0.000,0.224,0.000
 ZoneInfiltration Airflow Stats Nominal, BUILDING STORY 2 THERMALZONE 2 MFM RESLIVING A END_A - STORY TOP INFILTRATION,ALWAYS ON DISCRETE,BUILDING STORY 2 THERMALZONE 2,155.79,4.4,1.053E-003,6.760E-006,2.891E-006,6.760E-003,0.000,0.000,0.224,0.000
 ZoneInfiltration Airflow Stats Nominal, BUILDING STORY 2 THERMALZONE 3 MFM RESLIVING A END_A - STORY TOP INFILTRATION,ALWAYS ON DISCRETE,BUILDING STORY 2 THERMALZONE 3,60.21,1.7,4.251E-004,7.060E-006,2.891E-006,7.060E-003,0.000,0.000,0.224,0.000
 ZoneInfiltration Airflow Stats Nominal, BUILDING STORY 2 THERMALZONE 4 MFM RESLIVING A END_A - STORY TOP INFILTRATION,ALWAYS ON DISCRETE,BUILDING STORY 2 THERMALZONE 4,155.79,4.4,1.053E-003,6.760E-006,2.891E-006,6.760E-003,0.000,0.000,0.224,0.000
 ZoneInfiltration Airflow Stats Nominal, BUILDING STORY 2 THERMALZONE MFM RESLIVING A END_B - STORY TOP INFILTRATION,ALWAYS ON DISCRETE,BUILDING STORY 2 THERMALZONE,964.61,27.3,2.789E-003,2.891E-006,2.891E-006,2.891E-003,0.000,0.000,0.224,0.000
 ZoneInfiltration Airflow Stats Nominal, BUILDING STORY 2 THERMALZONE 1 MFM RESLIVING A END_B - STORY TOP INFILTRATION,ALWAYS ON DISCRETE,BUILDING STORY 2 THERMALZONE 1,60.21,1.7,4.251E-004,7.060E-006,2.891E-006,7.060E-003,0.000,0.000,0.224,0.000
 ZoneInfiltration Airflow Stats Nominal, BUILDING STORY 2 THERMALZONE 2 MFM RESLIVING A END_B - STORY TOP INFILTRATION,ALWAYS ON DISCRETE,BUILDING STORY 2 THERMALZONE 2,155.79,4.4,1.053E-003,6.760E-006,2.891E-006,6.760E-003,0.000,0.000,0.224,0.000
 ZoneInfiltration Airflow Stats Nominal, BUILDING STORY 2 THERMALZONE 3 MFM RESLIVING A END_B - STORY TOP INFILTRATION,ALWAYS ON DISCRETE,BUILDING STORY 2 THERMALZONE 3,60.21,1.7,4.251E-004,7.060E-006,2.891E-006,7.060E-003,0.000,0.000,0.224,0.000
 ZoneInfiltration Airflow Stats Nominal, BUILDING STORY 2 THERMALZONE 4 MFM RESLIVING A END_B - STORY TOP INFILTRATION,ALWAYS ON DISCRETE,BUILDING STORY 2 THERMALZONE 4,155.79,4.4,1.053E-003,6.760E-006,2.891E-006,6.760E-003,0.000,0.000,0.224,0.000
 ZoneInfiltration Airflow Stats Nominal, BUILDING STORY 2 THERMALZONE MFM RESLIVING B END_A - STORY TOP INFILTRATION,ALWAYS ON DISCRETE,BUILDING STORY 2 THERMALZONE,964.61,27.3,6.857E-003,7.108E-006,7.108E-006,7.108E-003,0.000,0.000,0.224,0.000
 ZoneInfiltration Airflow Stats Nominal, BUILDING STORY 2 THERMALZONE 1 MFM RESLIVING B END_A - STORY TOP INFILTRATION,ALWAYS ON DISCRETE,BUILDING STORY 2 THERMALZONE 1,60.21,1.7,1.045E-003,1.736E-005,7.108E-006,1.736E-002,0.000,0.000,0.224,0.000
 ZoneInfiltration Airflow Stats Nominal, BUILDING STORY 2 THERMALZONE 2 MFM RESLIVING B END_A - STORY TOP INFILTRATION,ALWAYS ON DISCRETE,BUILDING STORY 2 THERMALZONE 2,155.79,4.4,2.589E-003,1.662E-005,7.108E-006,1.662E-002,0.000,0.000,0.224,0.000
 ZoneInfiltration Airflow Stats Nominal, BUILDING STORY 2 THERMALZONE 3 MFM RESLIVING B END_A - STORY TOP INFILTRATION,ALWAYS ON DISCRETE,BUILDING STORY 2 THERMALZONE 3,60.21,1.7,1.045E-003,1.736E-005,7.108E-006,1.736E-002,0.000,0.000,0.224,0.000
 ZoneInfiltration Airflow Stats Nominal, BUILDING STORY 2 THERMALZONE 4 MFM RESLIVING B END_A - STORY TOP INFILTRATION,ALWAYS ON DISCRETE,BUILDING STORY 2 THERMALZONE 4,155.79,4.4,2.589E-003,1.662E-005,7.108E-006,1.662E-002,0.000,0.000,0.224,0.000
 ZoneInfiltration Airflow Stats Nominal, BUILDING STORY 2 THERMALZONE MFM RESLIVING B END_B - STORY TOP INFILTRATION,ALWAYS ON DISCRETE,BUILDING STORY 2 THERMALZONE,964.61,27.3,6.857E-003,7.108E-006,7.108E-006,7.108E-003,0.000,0.000,0.224,0.000
 ZoneInfiltration Airflow Stats Nominal, BUILDING STORY 2 THERMALZONE 1 MFM RESLIVING B END_B - STORY TOP INFILTRATION,ALWAYS ON DISCRETE,BUILDING STORY 2 THERMALZONE 1,60.21,1.7,1.045E-003,1.736E-005,7.108E-006,1.736E-002,0.000,0.000,0.224,0.000
 ZoneInfiltration Airflow Stats Nominal, BUILDING STORY 2 THERMALZONE 2 MFM RESLIVING B END_B - STORY TOP INFILTRATION,ALWAYS ON DISCRETE,BUILDING STORY 2 THERMALZONE 2,155.79,4.4,2.589E-003,1.662E-005,7.108E-006,1.662E-002,0.000,0.000,0.224,0.000
 ZoneInfiltration Airflow Stats Nominal, BUILDING STORY 2 THERMALZONE 3 MFM RESLIVING B END_B - STORY TOP INFILTRATION,ALWAYS ON DISCRETE,BUILDING STORY 2 THERMALZONE 3,60.21,1.7,1.045E-003,1.736E-005,7.108E-006,1.736E-002,0.000,0.000,0.224,0.000
 ZoneInfiltration Airflow Stats Nominal, BUILDING STORY 2 THERMALZONE 4 MFM RESLIVING B END_B - STORY TOP INFILTRATION,ALWAYS ON DISCRETE,BUILDING STORY 2 THERMALZONE 4,155.79,4.4,2.589E-003,1.662E-005,7.108E-006,1.662E-002,0.000,0.000,0.224,0.000
 ZoneInfiltration Airflow Stats Nominal, BUILDING STORY 2 THERMALZONE MFM RESLIVING C  - STORY TOP INFILTRATION,ALWAYS ON DISCRETE,BUILDING STORY 2 THERMALZONE,964.61,27.3,1.072E-002,1.111E-005,1.111E-005,1.111E-002,0.000,0.000,0.224,0.000
 ZoneInfiltration Airflow Stats Nominal, BUILDING STORY 2 THERMALZONE 1 MFM RESLIVING C  - STORY TOP INFILTRATION,ALWAYS ON DISCRETE,BUILDING STORY 2 THERMALZONE 1,60.21,1.7,1.633E-003,2.713E-005,1.111E-005,2.713E-002,0.000,0.000,0.224,0.000
 ZoneInfiltration Airflow Stats Nominal, BUILDING STORY 2 THERMALZONE 2 MFM RESLIVING C  - STORY TOP INFILTRATION,ALWAYS ON DISCRETE,BUILDING STORY 2 THERMALZONE 2,155.79,4.4,4.046E-003,2.597E-005,1.111E-005,2.597E-002,0.000,0.000,0.224,0.000
 ZoneInfiltration Airflow Stats Nominal, BUILDING STORY 2 THERMALZONE 3 MFM RESLIVING C  - STORY TOP INFILTRATION,ALWAYS ON DISCRETE,BUILDING STORY 2 THERMALZONE 3,60.21,1.7,1.633E-003,2.713E-005,1.111E-005,2.713E-002,0.000,0.000,0.224,0.000
 ZoneInfiltration Airflow Stats Nominal, BUILDING STORY 2 THERMALZONE 4 MFM RESLIVING C  - STORY TOP INFILTRATION,ALWAYS ON DISCRETE,BUILDING STORY 2 THERMALZONE 4,155.79,4.4,4.046E-003,2.597E-005,1.111E-005,2.597E-002,0.000,0.000,0.224,0.000
 ZoneInfiltration Airflow Stats Nominal, BUILDING STORY 2 THERMALZONE MFM RESLIVING C END_A - STORY TOP INFILTRATION,ALWAYS ON DISCRETE,BUILDING STORY 2 THERMALZONE,964.61,27.3,2.789E-003,2.891E-006,2.891E-006,2.891E-003,0.000,0.000,0.224,0.000
 ZoneInfiltration Airflow Stats Nominal, BUILDING STORY 2 THERMALZONE 1 MFM RESLIVING C END_A - STORY TOP INFILTRATION,ALWAYS ON DISCRETE,BUILDING STORY 2 THERMALZONE 1,60.21,1.7,4.251E-004,7.060E-006,2.891E-006,7.060E-003,0.000,0.000,0.224,0.000
 ZoneInfiltration Airflow Stats Nominal, BUILDING STORY 2 THERMALZONE 2 MFM RESLIVING C END_A - STORY TOP INFILTRATION,ALWAYS ON DISCRETE,BUILDING STORY 2 THERMALZONE 2,155.79,4.4,1.053E-003,6.760E-006,2.891E-006,6.760E-003,0.000,0.000,0.224,0.000
 ZoneInfiltration Airflow Stats Nominal, BUILDING STORY 2 THERMALZONE 3 MFM RESLIVING C END_A - STORY TOP INFILTRATION,ALWAYS ON DISCRETE,BUILDING STORY 2 THERMALZONE 3,60.21,1.7,4.251E-004,7.060E-006,2.891E-006,7.060E-003,0.000,0.000,0.224,0.000
 ZoneInfiltration Airflow Stats Nominal, BUILDING STORY 2 THERMALZONE 4 MFM RESLIVING C END_A - STORY TOP INFILTRATION,ALWAYS ON DISCRETE,BUILDING STORY 2 THERMALZONE 4,155.79,4.4,1.053E-003,6.760E-006,2.891E-006,6.760E-003,0.000,0.000,0.224,0.000
 ZoneInfiltration Airflow Stats Nominal, BUILDING STORY 2 THERMALZONE MFM RESLIVING C END_B - STORY TOP INFILTRATION,ALWAYS ON DISCRETE,BUILDING STORY 2 THERMALZONE,964.61,27.3,2.789E-003,2.891E-006,2.891E-006,2.891E-003,0.000,0.000,0.224,0.000
 ZoneInfiltration Airflow Stats Nominal, BUILDING STORY 2 THERMALZONE 1 MFM RESLIVING C END_B - STORY TOP INFILTRATION,ALWAYS ON DISCRETE,BUILDING STORY 2 THERMALZONE 1,60.21,1.7,4.251E-004,7.060E-006,2.891E-006,7.060E-003,0.000,0.000,0.224,0.000
 ZoneInfiltration Airflow Stats Nominal, BUILDING STORY 2 THERMALZONE 2 MFM RESLIVING C END_B - STORY TOP INFILTRATION,ALWAYS ON DISCRETE,BUILDING STORY 2 THERMALZONE 2,155.79,4.4,1.053E-003,6.760E-006,2.891E-006,6.760E-003,0.000,0.000,0.224,0.000
 ZoneInfiltration Airflow Stats Nominal, BUILDING STORY 2 THERMALZONE 3 MFM RESLIVING C END_B - STORY TOP INFILTRATION,ALWAYS ON DISCRETE,BUILDING STORY 2 THERMALZONE 3,60.21,1.7,4.251E-004,7.060E-006,2.891E-006,7.060E-003,0.000,0.000,0.224,0.000
 ZoneInfiltration Airflow Stats Nominal, BUILDING STORY 2 THERMALZONE 4 MFM RESLIVING C END_B - STORY TOP INFILTRATION,ALWAYS ON DISCRETE,BUILDING STORY 2 THERMALZONE 4,155.79,4.4,1.053E-003,6.760E-006,2.891E-006,6.760E-003,0.000,0.000,0.224,0.000
! <AirFlow Model>, Simple
 AirFlow Model, Simple
! <RoomAir Model>, Zone Name, Mixing/Mundt/UCSDDV/UCSDCV/UCSDUFI/UCSDUFE/User Defined
RoomAir Model,BUILDING STORY 1 THERMALZONE,Mixing/Well-Stirred
RoomAir Model,BUILDING STORY 1 THERMALZONE 1,Mixing/Well-Stirred
RoomAir Model,BUILDING STORY 1 THERMALZONE 2,Mixing/Well-Stirred
RoomAir Model,BUILDING STORY 1 THERMALZONE 3,Mixing/Well-Stirred
RoomAir Model,BUILDING STORY 1 THERMALZONE 4,Mixing/Well-Stirred
RoomAir Model,BUILDING STORY 2 THERMALZONE,Mixing/Well-Stirred
RoomAir Model,BUILDING STORY 2 THERMALZONE 1,Mixing/Well-Stirred
RoomAir Model,BUILDING STORY 2 THERMALZONE 2,Mixing/Well-Stirred
RoomAir Model,BUILDING STORY 2 THERMALZONE 3,Mixing/Well-Stirred
RoomAir Model,BUILDING STORY 2 THERMALZONE 4,Mixing/Well-Stirred
! <AirflowNetwork Model:Control>, No Multizone or Distribution/Multizone with Distribution/Multizone without Distribution/Multizone with Distribution only during Fan Operation
AirflowNetwork Model:Control,NoMultizoneOrDistribution
! <Zone Volume Capacitance Multiplier>, Sensible Heat Capacity Multiplier, Moisture Capacity Multiplier, Carbon Dioxide Capacity Multiplier, Generic Contaminant Capacity Multiplier
Zone Volume Capacitance Multiplier,   1.000 ,   1.000,   1.000,   1.000
! <Load Timesteps in Zone Design Calculation Averaging Window>, Value
 Load Timesteps in Zone Design Calculation Averaging Window,    1
! <Heating Sizing Factor Information>, Sizing Factor ID, Value
 Heating Sizing Factor Information, Global,   1.2500    
 Heating Sizing Factor Information, Zone BUILDING STORY 1 THERMALZONE,   1.2500    
 Heating Sizing Factor Information, Zone BUILDING STORY 1 THERMALZONE 1,   1.2500    
 Heating Sizing Factor Information, Zone BUILDING STORY 1 THERMALZONE 2,   1.2500    
 Heating Sizing Factor Information, Zone BUILDING STORY 1 THERMALZONE 3,   1.2500    
 Heating Sizing Factor Information, Zone BUILDING STORY 1 THERMALZONE 4,   1.2500    
 Heating Sizing Factor Information, Zone BUILDING STORY 2 THERMALZONE,   1.2500    
 Heating Sizing Factor Information, Zone BUILDING STORY 2 THERMALZONE 1,   1.2500    
 Heating Sizing Factor Information, Zone BUILDING STORY 2 THERMALZONE 2,   1.2500    
 Heating Sizing Factor Information, Zone BUILDING STORY 2 THERMALZONE 3,   1.2500    
 Heating Sizing Factor Information, Zone BUILDING STORY 2 THERMALZONE 4,   1.2500    
! <Cooling Sizing Factor Information>, Sizing Factor ID, Value
 Cooling Sizing Factor Information, Global,   1.1500    
 Cooling Sizing Factor Information, Zone BUILDING STORY 1 THERMALZONE,   1.1500    
 Cooling Sizing Factor Information, Zone BUILDING STORY 1 THERMALZONE 1,   1.1500    
 Cooling Sizing Factor Information, Zone BUILDING STORY 1 THERMALZONE 2,   1.1500    
 Cooling Sizing Factor Information, Zone BUILDING STORY 1 THERMALZONE 3,   1.1500    
 Cooling Sizing Factor Information, Zone BUILDING STORY 1 THERMALZONE 4,   1.1500    
 Cooling Sizing Factor Information, Zone BUILDING STORY 2 THERMALZONE,   1.1500    
 Cooling Sizing Factor Information, Zone BUILDING STORY 2 THERMALZONE 1,   1.1500    
 Cooling Sizing Factor Information, Zone BUILDING STORY 2 THERMALZONE 2,   1.1500    
 Cooling Sizing Factor Information, Zone BUILDING STORY 2 THERMALZONE 3,   1.1500    
 Cooling Sizing Factor Information, Zone BUILDING STORY 2 THERMALZONE 4,   1.1500    
! <Zone Sizing Information>, Zone Name, Load Type, Calc Des Load {W}, User Des Load {W}, Calc Des Air Flow Rate {m3/s}, User Des Air Flow Rate {m3/s}, Design Day Name, Date/Time of Peak, Temperature at Peak {C}, Humidity Ratio at Peak {kgWater/kgDryAir}, Floor Area {m2}, # Occupants, Calc Outdoor Air Flow Rate {m3/s}, Calc DOAS Heat Addition Rate {W}
 Zone Sizing Information, BUILDING STORY 1 THERMALZONE, Cooling, 0.00000, 0.00000, 0.00000, 0.43228, LONG BEACH DAUGHERTY FLD ANN CLG .4% CONDNS DB=>MWB 1, , 32.90000, 9.39471E-003, 964.61493, 33.42146, 0.43228, 0.00000
 Zone Sizing Information, BUILDING STORY 1 THERMALZONE, Heating, 0.00000, 0.00000, 0.00000, 0.43228, LONG BEACH DAUGHERTY FLD ANN HTG 99.6% CONDNS DB 1, , 5.10000, 5.44557E-003, 964.61493, 33.42146, 0.43228, 0.00000
 Zone Sizing Information, BUILDING STORY 1 THERMALZONE 1, Cooling, 5341.46838, 6142.68864, 0.37642, 0.43288, LONG BEACH DAUGHERTY FLD ANN CLG .4% CONDNS DB=>MWB 1, 8/21 13:00:00, 32.42500, 9.39393E-003, 60.21425, 2.08627, 2.69841E-002, 0.00000
 Zone Sizing Information, BUILDING STORY 1 THERMALZONE 1, Heating, 1916.30076, 2395.37595, 7.80963E-002, 9.76204E-002, LONG BEACH DAUGHERTY FLD ANN HTG 99.6% CONDNS DB 1, 12/21 15:00:00, 5.10000, 5.44557E-003, 60.21425, 2.08627, 2.69841E-002, 0.00000
 Zone Sizing Information, BUILDING STORY 1 THERMALZONE 2, Cooling, 15632.59527, 17977.48456, 1.10164, 1.26689, LONG BEACH DAUGHERTY FLD ANN CLG .4% CONDNS DB=>MWB 1, 8/21 17:00:00, 31.57000, 9.39253E-003, 155.79383, 5.39786, 6.98167E-002, 0.00000
 Zone Sizing Information, BUILDING STORY 1 THERMALZONE 2, Heating, 4219.42754, 5274.28443, 0.17196, 0.21495, LONG BEACH DAUGHERTY FLD ANN HTG 99.6% CONDNS DB 1, 12/21 15:00:00, 5.10000, 5.44557E-003, 155.79383, 5.39786, 6.98167E-002, 0.00000
 Zone Sizing Information, BUILDING STORY 1 THERMALZONE 3, Cooling, 1536.32229, 1766.77063, 0.10827, 0.12451, LONG BEACH DAUGHERTY FLD ANN CLG .4% CONDNS DB=>MWB 1, 8/21 15:00:00, 32.90000, 9.39471E-003, 60.21392, 2.08626, 2.69840E-002, 0.00000
 Zone Sizing Information, BUILDING STORY 1 THERMALZONE 3, Heating, 1864.72851, 2330.91063, 7.59945E-002, 9.49932E-002, LONG BEACH DAUGHERTY FLD ANN HTG 99.6% CONDNS DB 1, 12/21 15:00:00, 5.10000, 5.44557E-003, 60.21392, 2.08626, 2.69840E-002, 0.00000
 Zone Sizing Information, BUILDING STORY 1 THERMALZONE 4, Cooling, 18434.93525, 21200.17554, 1.29912, 1.49399, LONG BEACH DAUGHERTY FLD ANN CLG .4% CONDNS DB=>MWB 1, 8/21 10:00:00, 29.29000, 9.38881E-003, 155.79383, 5.39786, 6.98167E-002, 0.00000
 Zone Sizing Information, BUILDING STORY 1 THERMALZONE 4, Heating, 4428.91556, 5536.14445, 0.18049, 0.22562, LONG BEACH DAUGHERTY FLD ANN HTG 99.6% CONDNS DB 1, 12/21 15:00:00, 5.10000, 5.44557E-003, 155.79383, 5.39786, 6.98167E-002, 0.00000
 Zone Sizing Information, BUILDING STORY 2 THERMALZONE, Cooling, 13149.99932, 15122.49922, 0.92669, 1.06569, LONG BEACH DAUGHERTY FLD ANN CLG .4% CONDNS DB=>MWB 1, 8/21 14:00:00, 32.90000, 9.39471E-003, 964.61493, 27.30737, 0.46396, 0.00000
 Zone Sizing Information, BUILDING STORY 2 THERMALZONE, Heating, 2990.29475, 3737.86843, 0.12187, 0.46396, LONG BEACH DAUGHERTY FLD ANN HTG 99.6% CONDNS DB 1, 12/21 15:00:00, 5.10000, 5.44557E-003, 964.61493, 27.30737, 0.46396, 0.00000
 Zone Sizing Information, BUILDING STORY 2 THERMALZONE 1, Cooling, 7856.54206, 9035.02336, 0.55366, 0.63670, LONG BEACH DAUGHERTY FLD ANN CLG .4% CONDNS DB=>MWB 1, 8/21 14:00:00, 32.90000, 9.39471E-003, 60.21425, 1.70461, 2.89615E-002, 0.00000
 Zone Sizing Information, BUILDING STORY 2 THERMALZONE 1, Heating, 2279.52953, 2849.41191, 9.28992E-002, 0.11612, LONG BEACH DAUGHERTY FLD ANN HTG 99.6% CONDNS DB 1, 12/21 15:00:00, 5.10000, 5.44557E-003, 60.21425, 1.70461, 2.89615E-002, 0.00000
 Zone Sizing Information, BUILDING STORY 2 THERMALZONE 2, Cooling, 28409.17752, 32670.55415, 2.00201, 2.30232, LONG BEACH DAUGHERTY FLD ANN CLG .4% CONDNS DB=>MWB 1, 8/21 16:00:00, 32.33000, 9.39377E-003, 155.79383, 4.41038, 7.49328E-002, 0.00000
 Zone Sizing Information, BUILDING STORY 2 THERMALZONE 2, Heating, 5377.88183, 6722.35228, 0.21917, 0.27396, LONG BEACH DAUGHERTY FLD ANN HTG 99.6% CONDNS DB 1, 12/21 15:00:00, 5.10000, 5.44557E-003, 155.79383, 4.41038, 7.49328E-002, 0.00000
 Zone Sizing Information, BUILDING STORY 2 THERMALZONE 3, Cooling, 3516.14200, 4043.56330, 0.24778, 0.28495, LONG BEACH DAUGHERTY FLD ANN CLG .4% CONDNS DB=>MWB 1, 8/21 15:00:00, 32.90000, 9.39471E-003, 60.21392, 1.70460, 2.89614E-002, 0.00000
 Zone Sizing Information, BUILDING STORY 2 THERMALZONE 3, Heating, 2256.62688, 2820.78361, 9.19658E-002, 0.11496, LONG BEACH DAUGHERTY FLD ANN HTG 99.6% CONDNS DB 1, 12/21 15:00:00, 5.10000, 5.44557E-003, 60.21392, 1.70460, 2.89614E-002, 0.00000
 Zone Sizing Information, BUILDING STORY 2 THERMALZONE 4, Cooling, 26073.41553, 29984.42786, 1.83741, 2.11302, LONG BEACH DAUGHERTY FLD ANN CLG .4% CONDNS DB=>MWB 1, 8/21 10:00:00, 29.29000, 9.38881E-003, 155.79383, 4.41038, 7.49328E-002, 0.00000
 Zone Sizing Information, BUILDING STORY 2 THERMALZONE 4, Heating, 5514.30683, 6892.88354, 0.22473, 0.28091, LONG BEACH DAUGHERTY FLD ANN HTG 99.6% CONDNS DB 1, 12/21 15:00:00, 5.10000, 5.44557E-003, 155.79383, 4.41038, 7.49328E-002, 0.00000
! <Component Sizing Information>, Component Type, Component Name, Input Field Description, Value
 Component Sizing Information, ZONEHVAC:BASEBOARD:CONVECTIVE:ELECTRIC, BUILDING STORY 1 THERMALZONE ELECTRIC BASEBOARD, Design Size Heating Design Capacity [W], 0.00000
 Component Sizing Information, ZONEHVAC:BASEBOARD:CONVECTIVE:ELECTRIC, BUILDING STORY 1 THERMALZONE 1 ELECTRIC BASEBOARD, Design Size Heating Design Capacity [W], 2395.37595
 Component Sizing Information, ZONEHVAC:BASEBOARD:CONVECTIVE:ELECTRIC, BUILDING STORY 1 THERMALZONE 2 ELECTRIC BASEBOARD, Design Size Heating Design Capacity [W], 5274.28443
 Component Sizing Information, ZONEHVAC:BASEBOARD:CONVECTIVE:ELECTRIC, BUILDING STORY 1 THERMALZONE 3 ELECTRIC BASEBOARD, Design Size Heating Design Capacity [W], 2330.91063
 Component Sizing Information, ZONEHVAC:BASEBOARD:CONVECTIVE:ELECTRIC, BUILDING STORY 1 THERMALZONE 4 ELECTRIC BASEBOARD, Design Size Heating Design Capacity [W], 5536.14445
 Component Sizing Information, ZONEHVAC:BASEBOARD:CONVECTIVE:ELECTRIC, BUILDING STORY 2 THERMALZONE ELECTRIC BASEBOARD, Design Size Heating Design Capacity [W], 3737.86843
 Component Sizing Information, ZONEHVAC:BASEBOARD:CONVECTIVE:ELECTRIC, BUILDING STORY 2 THERMALZONE 1 ELECTRIC BASEBOARD, Design Size Heating Design Capacity [W], 2849.41191
 Component Sizing Information, ZONEHVAC:BASEBOARD:CONVECTIVE:ELECTRIC, BUILDING STORY 2 THERMALZONE 2 ELECTRIC BASEBOARD, Design Size Heating Design Capacity [W], 6722.35228
 Component Sizing Information, ZONEHVAC:BASEBOARD:CONVECTIVE:ELECTRIC, BUILDING STORY 2 THERMALZONE 3 ELECTRIC BASEBOARD, Design Size Heating Design Capacity [W], 2820.78361
 Component Sizing Information, ZONEHVAC:BASEBOARD:CONVECTIVE:ELECTRIC, BUILDING STORY 2 THERMALZONE 4 ELECTRIC BASEBOARD, Design Size Heating Design Capacity [W], 6892.88354
 Component Sizing Information, Coil:WaterHeating:AirToWaterHeatPump:Pumped, 800GAL HEAT PUMP WATER HEATER - 320KBTU/HR COIL 1, Design Size Rated Evaporator Air Flow Rate [m3/s], 4.72196
 Component Sizing Information, Coil:WaterHeating:AirToWaterHeatPump:Pumped, 800GAL HEAT PUMP WATER HEATER - 320KBTU/HR COIL 1, Design Size Rated Condenser Water Flow Rate [m3/s], 4.20803E-003
 Component Sizing Information, Fan:OnOff, 800GAL HEAT PUMP WATER HEATER - 320KBTU/HR FAN 1, User-Specified Maximum Flow Rate [m3/s], 8.54225E-002
Heat Pump Water Heater Information,WaterHeater:HeatPump:PumpedCondenser,800GAL HEAT PUMP WATER HEATER - 320KBTU/HR_TYPE_B 1,2.7254,86306.0,0.581,2.7382,60013
 Component Sizing Information, WaterHeater:HeatPump:PumpedCondenser, 800GAL HEAT PUMP WATER HEATER - 320KBTU/HR_TYPE_B 1, Condenser water flow rate [m3/s], 4.20803E-003
 Component Sizing Information, Coil:WaterHeating:AirToWaterHeatPump:Pumped, 800GAL HEAT PUMP WATER HEATER - 320KBTU/HR COIL, Design Size Rated Evaporator Air Flow Rate [m3/s], 4.72196
 Component Sizing Information, Coil:WaterHeating:AirToWaterHeatPump:Pumped, 800GAL HEAT PUMP WATER HEATER - 320KBTU/HR COIL, Design Size Rated Condenser Water Flow Rate [m3/s], 4.20803E-003
 Component Sizing Information, Fan:OnOff, 800GAL HEAT PUMP WATER HEATER - 320KBTU/HR FAN, User-Specified Maximum Flow Rate [m3/s], 8.54225E-002
Heat Pump Water Heater Information,WaterHeater:HeatPump:PumpedCondenser,800GAL HEAT PUMP WATER HEATER - 320KBTU/HR_TYPE_B,2.7254,86306.0,0.581,2.7382,60013
 Component Sizing Information, WaterHeater:HeatPump:PumpedCondenser, 800GAL HEAT PUMP WATER HEATER - 320KBTU/HR_TYPE_B, Condenser water flow rate [m3/s], 4.20803E-003
 Component Sizing Information, PlantLoop, STORY GROUND BLENDED SPACE TYPE SERVICE WATER LOOP, Initial Maximum Loop Flow Rate [m3/s], 1.66978E-004
 Component Sizing Information, PlantLoop, STORY GROUND BLENDED SPACE TYPE SERVICE WATER LOOP, Initial Plant Loop Volume [m3], 2.00374E-002
 Component Sizing Information, Pump:VariableSpeed, STORY GROUND BLENDED SPACE TYPE SERVICE WATER LOOP WATER MAINS PRESSURE DRIVEN, Initial Design Flow Rate [m3/s], 1.66978E-004
 Component Sizing Information, Pump:VariableSpeed, STORY GROUND BLENDED SPACE TYPE SERVICE WATER LOOP WATER MAINS PRESSURE DRIVEN, Initial Design Power Consumption [W], 2.70980E-007
 Component Sizing Information, WaterHeater:Mixed, 800GAL HEAT PUMP WATER HEATER - 320KBTU/HR TANK 1, Initial Use Side Design Flow Rate [m3/s], 1.66978E-004
 Component Sizing Information, PlantLoop, STORY TOP BLENDED SPACE TYPE SERVICE WATER LOOP, Initial Maximum Loop Flow Rate [m3/s], 1.66978E-004
 Component Sizing Information, PlantLoop, STORY TOP BLENDED SPACE TYPE SERVICE WATER LOOP, Initial Plant Loop Volume [m3], 2.00374E-002
 Component Sizing Information, Pump:VariableSpeed, STORY TOP BLENDED SPACE TYPE SERVICE WATER LOOP WATER MAINS PRESSURE DRIVEN, Initial Design Flow Rate [m3/s], 1.66978E-004
 Component Sizing Information, Pump:VariableSpeed, STORY TOP BLENDED SPACE TYPE SERVICE WATER LOOP WATER MAINS PRESSURE DRIVEN, Initial Design Power Consumption [W], 2.70980E-007
 Component Sizing Information, WaterHeater:Mixed, 800GAL HEAT PUMP WATER HEATER - 320KBTU/HR TANK, Initial Use Side Design Flow Rate [m3/s], 1.66978E-004
! <Environment>,Environment Name,Environment Type, Start Date, End Date, Start DayOfWeek, Duration {#days}, Source:Start DayOfWeek,  Use Daylight Saving, Use Holidays, Apply Weekend Holiday Rule,  Use Rain Values, Use Snow Values, Sky Temperature Model
! <Environment:Special Days>, Special Day Name, Special Day Type, Source, Start Date, Duration {#days}
! <Environment:Daylight Saving>, Daylight Saving Indicator, Source, Start Date, End Date
! <Environment:WarmupDays>, NumberofWarmupDays
Environment,LONG BEACH DAUGHERTY FLD ANN CLG .4% CONDNS DB=>MWB 1,SizingPeriod:DesignDay,08/21,08/21,SummerDesignDay,1,N/A,N/A,N/A,N/A,N/A,N/A,Clark and Allen
Environment:Daylight Saving,No,SizingPeriod:DesignDay
Environment,LONG BEACH DAUGHERTY FLD ANN CLG .4% CONDNS WB=>MDB 1,SizingPeriod:DesignDay,08/21,08/21,SummerDesignDay,1,N/A,N/A,N/A,N/A,N/A,N/A,Clark and Allen
Environment:Daylight Saving,No,SizingPeriod:DesignDay
Environment,LONG BEACH DAUGHERTY FLD ANN HTG 99.6% CONDNS DB 1,SizingPeriod:DesignDay,12/21,12/21,WinterDesignDay,1,N/A,N/A,N/A,N/A,N/A,N/A,Clark and Allen
Environment:Daylight Saving,No,SizingPeriod:DesignDay
Environment,LONG BEACH DAUGHERTY FLD ANN CLG .4% CONDNS DB=>MWB 1 HVAC Sizing Pass 1,SizingPeriod:DesignDay,08/21,08/21,SummerDesignDay,1,N/A,N/A,N/A,N/A,N/A,N/A,Clark and Allen
Environment:Daylight Saving,No,SizingPeriod:DesignDay
! <Environment:Design Day Data>, Max Dry-Bulb Temp {C}, Temp Range {dC}, Temp Range Ind Type, Hum Ind Type, Hum Ind Value at Max Temp, Hum Ind Units, Pressure {Pa}, Wind Direction {deg CW from N}, Wind Speed {m/s}, Clearness, Rain, Snow
! <Environment:Design Day Misc>,DayOfYear,ASHRAE A Coeff,ASHRAE B Coeff,ASHRAE C Coeff,Solar Constant-Annual Variation,Eq of Time {minutes}, Solar Declination Angle {deg}, Solar Model
Environment:Design Day Data,32.90,9.50,DefaultMultipliers,Wetbulb,20.00,{C},101229,280,4.1,0.00,No,No
Environment:Design Day Misc,233,1106.3,0.2000,0.1216,1.0,-3.33,12.4,ASHRAETau
Environment:WarmupDays, 19
! <Tabular Report>,Style,Unit Conversion
Tabular Report,HTML,None
